<routes xmlns:xsi="http://www.w3.org/2001/XMLSchema-instance" xsi:noNamespaceSchemaLocation="http://sumo.dlr.de/xsd/routes_file.xsd">
	<vehicle id="0" depart="0">
		<route edges="road_0_2_0 road_1_2_0 road_2_2_0 road_3_2_1 road_3_3_1"/>
	</vehicle>
	<vehicle id="1" depart="0">
		<route edges="road_0_1_0 road_1_1_1 road_1_2_0 road_2_2_3 road_2_1_3"/>
	</vehicle>
	<vehicle id="2" depart="0">
		<route edges="road_0_3_0 road_1_3_0 road_2_3_0 road_3_3_3 road_3_2_2 road_2_2_3 road_2_1_2 road_1_1_1 road_1_2_0"/>
	</vehicle>
	<vehicle id="3" depart="0">
		<route edges="road_5_1_2 road_4_1_1 road_4_2_0"/>
	</vehicle>
	<vehicle id="4" depart="0">
		<route edges="road_5_3_2 road_4_3_3 road_4_2_3 road_4_1_3"/>
	</vehicle>
	<vehicle id="5" depart="0">
		<route edges="road_5_2_2 road_4_2_2 road_3_2_2 road_2_2_2 road_1_2_2"/>
	</vehicle>
	<vehicle id="6" depart="0">
		<route edges="road_1_4_3 road_1_3_2"/>
	</vehicle>
	<vehicle id="7" depart="0">
		<route edges="road_2_4_3 road_2_3_2 road_1_3_2"/>
	</vehicle>
	<vehicle id="8" depart="0">
		<route edges="road_4_4_3 road_4_3_2 road_3_3_1"/>
	</vehicle>
	<vehicle id="9" depart="0">
		<route edges="road_3_4_3 road_3_3_3 road_3_2_3 road_3_1_3"/>
	</vehicle>
	<vehicle id="10" depart="0">
		<route edges="road_4_0_1 road_4_1_0"/>
	</vehicle>
	<vehicle id="11" depart="0">
		<route edges="road_1_0_1 road_1_1_1 road_1_2_1 road_1_3_1"/>
	</vehicle>
	<vehicle id="12" depart="0">
		<route edges="road_3_0_1 road_3_1_0 road_4_1_1 road_4_2_1 road_4_3_0"/>
	</vehicle>
	<vehicle id="13" depart="0">
		<route edges="road_2_0_1 road_2_1_1 road_2_2_1 road_2_3_2 road_1_3_2"/>
	</vehicle>
	<person id="0" depart="0.00">
        <walk edges="road_3_2_3 road_2_2_0 road_1_2_0 road_0_2_0"/>
    </person>
    <person id="1" depart="0.00">
        <walk edges="road_2_0_1 road_1_1_0 road_1_1_1 road_1_2_1 road_1_3_1"/>
    </person>
    <person id="2" depart="0.00">
        <walk edges="road_4_0_1 road_3_1_0 road_3_1_1 road_3_2_1 road_3_3_1"/>
    </person>
    <person id="3" depart="1.00">
        <walk edges="road_4_3_1 road_3_3_0 road_2_3_0 road_2_2_1 road_1_2_0 road_1_1_1"/>
    </person>
    <person id="4" depart="1.00">
        <walk edges="road_2_3_0 road_1_3_0 road_1_2_1 road_0_2_0"/>
    </person>
    <person id="5" depart="1.00">
        <walk edges="road_1_3_1 road_1_3_0 road_2_3_0 road_3_2_1 road_3_1_1 road_3_0_1"/>
    </person>
    <person id="6" depart="3.00">
        <walk edges="road_0_2_0 road_1_2_1 road_1_3_0"/>
    </person>
	<vehicle id="14" depart="5">
		<route edges="road_0_2_0 road_1_2_0 road_2_2_1 road_2_3_2 road_1_3_2"/>
	</vehicle>
	<vehicle id="15" depart="5">
		<route edges="road_0_3_0 road_1_3_0 road_2_3_3 road_2_2_3 road_2_1_3"/>
	</vehicle>
	<person id="7" depart="5.00">
        <walk edges="road_3_3_0 road_3_2_1 road_3_1_1"/>
    </person>
    <person id="8" depart="5.00">
        <walk edges="road_1_3_1 road_1_3_0 road_2_3_0 road_3_2_1 road_3_2_0"/>
    </person>
    <person id="9" depart="5.00">
        <walk edges="road_4_2_0 road_3_2_0 road_2_2_0 road_2_1_1 road_1_1_0 road_0_1_0"/>
    </person>
    <person id="10" depart="5.00">
        <walk edges="road_4_1_3 road_3_1_0 road_3_1_1 road_3_3_3"/>
    </person>
    <person id="11" depart="5.00">
        <walk edges="road_2_1_3 road_1_1_0 road_1_1_1 road_1_2_1"/>
    </person>
    <person id="12" depart="5.00">
        <walk edges="road_5_1_2 road_3_1_0 road_2_1_0 road_2_1_2"/>
    </person>
	<vehicle id="16" depart="6">
		<route edges="road_0_1_0 road_1_1_0 road_2_1_0 road_3_1_0 road_4_1_3"/>
	</vehicle>
	<person id="13" depart="6.00">
        <walk edges="road_1_1_1"/>
    </person>
    <person id="14" depart="7.00">
        <walk edges="road_4_2_2 road_3_2_1"/>
    </person>
	<vehicle id="17" depart="8">
		<route edges="road_4_0_1 road_4_1_0"/>
	</vehicle>
	<vehicle id="18" depart="8">
		<route edges="road_1_0_1 road_1_1_0 road_2_1_0 road_3_1_0 road_4_1_0"/>
	</vehicle>
	<vehicle id="19" depart="8">
		<route edges="road_2_0_1 road_2_1_0 road_3_1_0 road_4_1_3"/>
	</vehicle>
	<person id="15" depart="8.00">
        <walk edges="road_4_2_0 road_4_1_1 road_4_0_1"/>
    </person>
    <person id="16" depart="8.00">
        <walk edges="road_3_1_1 road_3_2_0 road_5_2_2"/>
    </person>
    <person id="17" depart="8.00">
        <walk edges="road_2_2_1 road_2_1_1 road_3_1_2"/>
    </person>
    <person id="18" depart="8.00">
        <walk edges="road_4_2_1 road_3_2_0 road_3_2_2"/>
    </person>
    <person id="19" depart="8.00">
        <walk edges="road_4_2_3 road_3_1_0 road_3_1_3"/>
    </person>
    <person id="20" depart="8.00">
        <walk edges="road_3_3_3 road_2_3_0 road_1_3_0 road_0_3_0"/>
    </person>
    <person id="21" depart="8.00">
        <walk edges="road_1_3_2 road_1_2_1 road_1_1_1 road_1_1_0 road_2_0_1"/>
    </person>
	<vehicle id="20" depart="9">
		<route edges="road_3_0_1 road_3_1_1 road_3_2_1 road_3_3_1"/>
	</vehicle>
	<vehicle id="21" depart="10">
		<route edges="road_0_2_0 road_1_2_0 road_2_2_0 road_3_2_0 road_4_2_0"/>
	</vehicle>
	<vehicle id="22" depart="10">
		<route edges="road_0_3_0 road_1_3_0 road_2_3_0 road_3_3_0 road_4_3_3 road_4_2_3 road_4_1_3"/>
	</vehicle>
	<vehicle id="23" depart="10">
		<route edges="road_2_4_3 road_2_3_2 road_1_3_1"/>
	</vehicle>
	<vehicle id="24" depart="10">
		<route edges="road_4_4_3 road_4_3_2 road_3_3_3 road_3_2_3 road_3_1_3"/>
	</vehicle>
	<vehicle id="25" depart="10">
		<route edges="road_3_4_3 road_3_3_2 road_2_3_2 road_1_3_2"/>
	</vehicle>
	<vehicle id="26" depart="11">
		<route edges="road_5_1_2 road_4_1_2 road_3_1_2 road_2_1_2 road_1_1_3"/>
	</vehicle>
	<person id="22" depart="11.00">
        <walk edges="road_1_1_0 road_1_1_1 road_1_2_1 road_1_3_2"/>
    </person>
    <person id="23" depart="11.00">
        <walk edges="road_1_1_2 road_1_1_0 road_2_0_1"/>
    </person>
    <person id="24" depart="11.00">
        <walk edges="road_3_2_3 road_2_2_0"/>
    </person>
    <person id="25" depart="11.00">
        <walk edges="road_2_2_0 road_2_2_1 road_1_3_0"/>
    </person>
	<vehicle id="27" depart="12">
		<route edges="road_0_1_0 road_1_1_3"/>
	</vehicle>
	<vehicle id="28" depart="12">
		<route edges="road_5_3_2 road_4_3_1"/>
	</vehicle>
	<person id="26" depart="12.00">
        <walk edges="road_1_4_3 road_1_3_0 road_2_3_0 road_3_3_0 road_4_4_3"/>
    </person>
	<vehicle id="29" depart="13">
		<route edges="road_5_2_2 road_4_2_2 road_3_2_3 road_3_1_2 road_2_1_2 road_1_1_2"/>
	</vehicle>
	<vehicle id="30" depart="13">
		<route edges="road_1_4_3 road_1_3_3 road_1_2_2"/>
	</vehicle>
	<person id="27" depart="13.00">
        <walk edges="road_3_3_0 road_3_2_1"/>
    </person>
    <person id="28" depart="13.00">
        <walk edges="road_1_2_2 road_1_2_0 road_2_2_0 road_3_1_1 road_3_1_0 road_4_0_1"/>
    </person>
    <person id="29" depart="13.00">
        <walk edges="road_1_2_2 road_1_2_0 road_2_2_1"/>
    </person>
    <person id="30" depart="13.00">
        <walk edges="road_5_3_2 road_3_3_0 road_3_2_1 road_3_2_3"/>
    </person>
	<vehicle id="31" depart="15">
		<route edges="road_0_2_0 road_1_2_0 road_2_2_3 road_2_1_0 road_3_1_0 road_4_1_0"/>
	</vehicle>
	<vehicle id="32" depart="15">
		<route edges="road_0_3_0 road_1_3_0 road_2_3_1"/>
	</vehicle>
	<vehicle id="33" depart="16">
		<route edges="road_4_0_1 road_4_1_0"/>
	</vehicle>
	<vehicle id="34" depart="16">
		<route edges="road_1_0_1 road_1_1_1 road_1_2_1 road_1_3_2"/>
	</vehicle>
	<vehicle id="35" depart="16">
		<route edges="road_2_0_1 road_2_1_0 road_3_1_1 road_3_2_1 road_3_3_1"/>
	</vehicle>
	<person id="31" depart="17.00">
        <walk edges="road_3_1_2 road_3_1_1 road_3_2_1 road_3_3_2"/>
    </person>
    <person id="32" depart="17.00">
        <walk edges="road_4_2_2 road_4_1_1 road_4_1_2"/>
    </person>
    <person id="33" depart="17.00">
        <walk edges="road_1_3_2 road_1_2_1 road_0_2_0"/>
    </person>
    <person id="34" depart="17.00">
        <walk edges="road_2_1_1 road_2_2_1 road_1_3_0 road_1_4_3"/>
    </person>
    <person id="35" depart="17.00">
        <walk edges="road_1_3_1 road_1_3_0 road_2_3_0 road_3_3_0 road_4_4_3"/>
    </person>
	<vehicle id="36" depart="18">
		<route edges="road_0_1_0 road_1_1_1 road_1_2_1 road_1_3_1"/>
	</vehicle>
	<vehicle id="37" depart="18">
		<route edges="road_3_0_1 road_3_1_1 road_3_2_1 road_3_3_0 road_4_3_3 road_4_2_3 road_4_1_2"/>
	</vehicle>
	<person id="36" depart="18.00">
        <walk edges="road_4_3_0 road_3_3_0 road_2_3_0 road_2_2_1 road_2_1_1"/>
    </person>
	<vehicle id="38" depart="20">
		<route edges="road_0_2_0 road_1_2_0 road_2_2_0 road_3_2_0 road_4_2_0"/>
	</vehicle>
	<vehicle id="39" depart="20">
		<route edges="road_0_3_0 road_1_3_0 road_2_3_0 road_3_3_1"/>
	</vehicle>
	<vehicle id="40" depart="20">
		<route edges="road_2_4_3 road_2_3_3 road_2_2_3 road_2_1_2 road_1_1_2"/>
	</vehicle>
	<vehicle id="41" depart="20">
		<route edges="road_4_4_3 road_4_3_0"/>
	</vehicle>
	<vehicle id="42" depart="20">
		<route edges="road_3_4_3 road_3_3_3 road_3_2_3 road_3_1_0 road_4_1_3"/>
	</vehicle>
	<person id="37" depart="20.00">
        <walk edges="road_3_3_0 road_2_3_0 road_2_2_1 road_2_2_2"/>
    </person>
    <person id="38" depart="20.00">
        <walk edges="road_4_3_2 road_2_3_0 road_2_3_2"/>
    </person>
    <person id="39" depart="20.00">
        <walk edges="road_1_4_3 road_1_3_3"/>
    </person>
    <person id="40" depart="20.00">
        <walk edges="road_3_1_2 road_1_1_0 road_1_1_1 road_1_2_1 road_1_4_3"/>
    </person>
    <person id="41" depart="20.00">
        <walk edges="road_3_2_0 road_4_2_1 road_4_3_1"/>
    </person>
    <person id="42" depart="21.00">
        <walk edges="road_2_2_2 road_1_2_1 road_1_3_1"/>
    </person>
	<vehicle id="43" depart="22">
		<route edges="road_5_1_2 road_4_1_3"/>
	</vehicle>
	<person id="43" depart="22.00">
        <walk edges="road_5_3_2 road_3_3_0 road_3_2_1 road_3_1_1 road_3_0_1"/>
    </person>
    <person id="44" depart="23.00">
        <walk edges="road_1_1_1 road_1_2_1 road_0_3_0"/>
    </person>
    <person id="45" depart="23.00">
        <walk edges="road_1_1_2 road_1_1_0 road_2_1_1 road_3_2_2"/>
    </person>
    <person id="46" depart="23.00">
        <walk edges="road_4_1_3 road_4_1_1 road_4_2_1 road_3_3_0 road_2_3_0"/>
    </person>
    <person id="47" depart="23.00">
        <walk edges="road_1_0_1 road_1_1_0 road_2_1_1 road_2_2_1"/>
    </person>
	<vehicle id="44" depart="24">
		<route edges="road_0_1_0 road_1_1_0 road_2_1_0 road_3_1_1 road_3_2_1 road_3_3_1"/>
	</vehicle>
	<vehicle id="45" depart="24">
		<route edges="road_5_3_2 road_4_3_3 road_4_2_3 road_4_1_2 road_3_1_1 road_3_2_1 road_3_3_1"/>
	</vehicle>
	<vehicle id="46" depart="24">
		<route edges="road_4_0_1 road_4_1_2 road_3_1_3"/>
	</vehicle>
	<vehicle id="47" depart="24">
		<route edges="road_1_0_1 road_1_1_0 road_2_1_1 road_2_2_1 road_2_3_1"/>
	</vehicle>
	<vehicle id="48" depart="24">
		<route edges="road_2_0_1 road_2_1_1 road_2_2_1 road_2_3_1"/>
	</vehicle>
	<vehicle id="49" depart="25">
		<route edges="road_0_2_0 road_1_2_3 road_1_1_3"/>
	</vehicle>
	<vehicle id="50" depart="25">
		<route edges="road_0_3_0 road_1_3_3 road_1_2_3 road_1_1_3"/>
	</vehicle>
	<vehicle id="51" depart="26">
		<route edges="road_5_2_2 road_4_2_2 road_3_2_2 road_2_2_2 road_1_2_1 road_1_3_0 road_2_3_3 road_2_2_3 road_2_1_0 road_3_1_3"/>
	</vehicle>
	<vehicle id="52" depart="26">
		<route edges="road_1_4_3 road_1_3_2"/>
	</vehicle>
	<vehicle id="53" depart="27">
		<route edges="road_3_0_1 road_3_1_1 road_3_2_1 road_3_3_1"/>
	</vehicle>
	<person id="48" depart="27.00">
        <walk edges="road_5_3_2 road_4_2_1 road_4_1_1 road_3_1_0"/>
    </person>
    <person id="49" depart="27.00">
        <walk edges="road_5_2_2 road_4_2_3"/>
    </person>
    <person id="50" depart="27.00">
        <walk edges="road_0_1_0 road_1_1_0 road_2_1_1 road_2_2_1 road_2_3_0 road_3_4_3"/>
    </person>
    <person id="51" depart="27.00">
        <walk edges="road_3_3_2 road_3_2_1 road_3_1_1"/>
    </person>
    <person id="52" depart="27.00">
        <walk edges="road_1_4_3 road_1_3_0 road_2_3_0 road_3_2_1 road_3_2_3"/>
    </person>
    <person id="53" depart="27.00">
        <walk edges="road_1_1_2 road_1_1_1 road_1_2_1 road_1_3_0 road_2_3_0"/>
    </person>
    <person id="54" depart="27.00">
        <walk edges="road_2_3_2 road_2_3_0 road_3_3_0 road_4_2_1 road_4_1_1 road_5_1_2"/>
    </person>
    <person id="55" depart="27.00">
        <walk edges="road_4_3_0 road_3_3_0 road_2_3_0 road_1_3_0 road_1_4_3"/>
    </person>
    <person id="56" depart="28.00">
        <walk edges="road_3_0_1 road_2_1_0 road_1_1_0 road_1_2_3"/>
    </person>
    <person id="57" depart="29.00">
        <walk edges="road_4_3_2 road_4_2_1 road_4_2_3"/>
    </person>
    <person id="58" depart="29.00">
        <walk edges="road_2_1_0 road_3_2_3"/>
    </person>
    <person id="59" depart="29.00">
        <walk edges="road_3_2_1 road_2_2_0 road_1_2_0 road_1_2_1"/>
    </person>
    <person id="60" depart="29.00">
        <walk edges="road_4_1_1 road_3_1_0 road_3_1_1"/>
    </person>
	<vehicle id="54" depart="30">
		<route edges="road_0_2_0 road_1_2_0 road_2_2_3 road_2_1_2 road_1_1_3"/>
	</vehicle>
	<vehicle id="55" depart="30">
		<route edges="road_0_1_0 road_1_1_0 road_2_1_0 road_3_1_0 road_4_1_0"/>
	</vehicle>
	<vehicle id="56" depart="30">
		<route edges="road_0_3_0 road_1_3_0 road_2_3_0 road_3_3_1"/>
	</vehicle>
	<vehicle id="57" depart="30">
		<route edges="road_2_4_3 road_2_3_2 road_1_3_2"/>
	</vehicle>
	<vehicle id="58" depart="30">
		<route edges="road_4_4_3 road_4_3_0"/>
	</vehicle>
	<vehicle id="59" depart="30">
		<route edges="road_3_4_3 road_3_3_0 road_4_3_0"/>
	</vehicle>
	<person id="61" depart="30.00">
        <walk edges="road_4_1_2 road_3_1_0"/>
    </person>
    <person id="62" depart="31.00">
        <walk edges="road_0_1_0 road_2_1_2"/>
    </person>
    <person id="63" depart="31.00">
        <walk edges="road_0_2_0 road_1_2_0 road_2_2_0 road_3_2_0 road_4_3_3"/>
    </person>
    <person id="64" depart="31.00">
        <walk edges="road_4_3_0 road_4_2_1"/>
    </person>
    <person id="65" depart="31.00">
        <walk edges="road_2_1_1 road_1_1_0 road_1_0_1"/>
    </person>
    <person id="66" depart="31.00">
        <walk edges="road_4_3_0 road_4_4_3"/>
    </person>
    <person id="67" depart="31.00">
        <walk edges="road_1_1_1 road_1_2_1 road_1_3_0 road_2_4_3"/>
    </person>
	<vehicle id="60" depart="32">
		<route edges="road_4_0_1 road_4_1_1 road_4_2_1 road_4_3_0"/>
	</vehicle>
	<vehicle id="61" depart="32">
		<route edges="road_1_0_1 road_1_1_0 road_2_1_3"/>
	</vehicle>
	<vehicle id="62" depart="32">
		<route edges="road_2_0_1 road_2_1_1 road_2_2_0 road_3_2_0 road_4_2_3 road_4_1_2 road_3_1_1 road_3_2_1 road_3_3_0 road_4_3_0"/>
	</vehicle>
	<vehicle id="63" depart="33">
		<route edges="road_5_1_2 road_4_1_2 road_3_1_1 road_3_2_2 road_2_2_2 road_1_2_2"/>
	</vehicle>
	<vehicle id="64" depart="35">
		<route edges="road_0_2_0 road_1_2_1 road_1_3_1"/>
	</vehicle>
	<vehicle id="65" depart="35">
		<route edges="road_0_3_0 road_1_3_3 road_1_2_3 road_1_1_3"/>
	</vehicle>
	<person id="68" depart="35.00">
        <walk edges="road_1_1_0 road_2_1_0 road_3_1_0 road_4_1_1"/>
    </person>
    <person id="69" depart="35.00">
        <walk edges="road_4_1_1 road_3_1_0 road_2_1_0 road_1_1_0 road_1_1_3"/>
    </person>
    <person id="70" depart="35.00">
        <walk edges="road_2_3_3 road_2_1_1 road_3_1_2"/>
    </person>
    <person id="71" depart="35.00">
        <walk edges="road_1_4_3 road_1_3_0 road_2_3_0 road_3_3_0 road_4_3_0"/>
    </person>
	<vehicle id="66" depart="36">
		<route edges="road_0_1_0 road_1_1_0 road_2_1_1 road_2_2_1 road_2_3_1"/>
	</vehicle>
	<vehicle id="67" depart="36">
		<route edges="road_5_3_2 road_4_3_3 road_4_2_3 road_4_1_2 road_3_1_2 road_2_1_2 road_1_1_2"/>
	</vehicle>
	<vehicle id="68" depart="36">
		<route edges="road_3_0_1 road_3_1_1 road_3_2_1 road_3_3_1"/>
	</vehicle>
	<person id="72" depart="37.00">
        <walk edges="road_2_3_0 road_1_3_0 road_1_3_1"/>
    </person>
	<vehicle id="69" depart="39">
		<route edges="road_5_2_2 road_4_2_1 road_4_3_2 road_3_3_2 road_2_3_2 road_1_3_2"/>
	</vehicle>
	<vehicle id="70" depart="39">
		<route edges="road_1_4_3 road_1_3_0 road_2_3_0 road_3_3_3 road_3_2_3 road_3_1_2 road_2_1_2 road_1_1_2"/>
	</vehicle>
	<person id="73" depart="39.00">
        <walk edges="road_3_1_1 road_3_1_0 road_4_0_1"/>
    </person>
    <person id="74" depart="39.00">
        <walk edges="road_1_3_0 road_2_2_1 road_2_1_1"/>
    </person>
    <person id="75" depart="39.00">
        <walk edges="road_5_3_2 road_3_3_0"/>
    </person>
    <person id="76" depart="39.00">
        <walk edges="road_2_3_1 road_2_2_1 road_2_1_1 road_2_1_0 road_3_1_0"/>
    </person>
    <person id="77" depart="39.00">
        <walk edges="road_1_1_3 road_1_1_1 road_1_2_1 road_1_3_1"/>
    </person>
    <person id="78" depart="39.00">
        <walk edges="road_2_1_2 road_2_1_0 road_3_1_1 road_3_2_0"/>
    </person>
	<vehicle id="71" depart="40">
		<route edges="road_0_2_0 road_1_2_3 road_1_1_0 road_2_1_0 road_3_1_3"/>
	</vehicle>
	<vehicle id="72" depart="40">
		<route edges="road_0_3_0 road_1_3_1"/>
	</vehicle>
	<vehicle id="73" depart="40">
		<route edges="road_2_4_3 road_2_3_0 road_3_3_0 road_4_3_3 road_4_2_3 road_4_1_3"/>
	</vehicle>
	<vehicle id="74" depart="40">
		<route edges="road_4_4_3 road_4_3_2 road_3_3_3 road_3_2_0 road_4_2_0"/>
	</vehicle>
	<vehicle id="75" depart="40">
		<route edges="road_3_4_3 road_3_3_3 road_3_2_3 road_3_1_3"/>
	</vehicle>
	<vehicle id="76" depart="40">
		<route edges="road_4_0_1 road_4_1_0"/>
	</vehicle>
	<vehicle id="77" depart="40">
		<route edges="road_1_0_1 road_1_1_1 road_1_2_1 road_1_3_1"/>
	</vehicle>
	<vehicle id="78" depart="40">
		<route edges="road_2_0_1 road_2_1_1 road_2_2_1 road_2_3_0 road_3_3_0 road_4_3_0"/>
	</vehicle>
	<person id="79" depart="40.00">
        <walk edges="road_1_3_2 road_1_3_1"/>
    </person>
    <person id="80" depart="40.00">
        <walk edges="road_1_1_0 road_2_1_0 road_3_2_3"/>
    </person>
    <person id="81" depart="41.00">
        <walk edges="road_1_3_2 road_1_3_0 road_2_3_0 road_4_3_2"/>
    </person>
	<vehicle id="79" depart="42">
		<route edges="road_0_1_0 road_1_1_1 road_1_2_1 road_1_3_1"/>
	</vehicle>
	<person id="82" depart="42.00">
        <walk edges="road_4_2_3 road_3_1_0 road_2_1_0 road_1_1_0"/>
    </person>
    <person id="83" depart="43.00">
        <walk edges="road_1_3_2 road_1_3_0 road_2_3_0 road_3_3_1"/>
    </person>
    <person id="84" depart="43.00">
        <walk edges="road_1_3_1 road_1_2_1 road_1_2_0"/>
    </person>
    <person id="85" depart="43.00">
        <walk edges="road_4_4_3 road_3_3_0 road_3_2_1 road_3_1_1 road_3_1_3"/>
    </person>
    <person id="86" depart="43.00">
        <walk edges="road_2_3_3 road_2_1_1 road_2_1_0 road_4_1_2"/>
    </person>
    <person id="87" depart="43.00">
        <walk edges="road_4_2_0 road_3_2_0 road_2_2_0 road_1_2_0 road_1_2_3"/>
    </person>
	<vehicle id="80" depart="44">
		<route edges="road_5_1_2 road_4_1_1 road_4_2_1 road_4_3_0"/>
	</vehicle>
	<person id="88" depart="44.00">
        <walk edges="road_1_1_2 road_1_1_1 road_1_2_1 road_1_3_0 road_2_3_0"/>
    </person>
	<vehicle id="81" depart="45">
		<route edges="road_0_2_0 road_1_2_0 road_2_2_0 road_3_2_0 road_4_2_0"/>
	</vehicle>
	<vehicle id="82" depart="45">
		<route edges="road_0_3_0 road_1_3_0 road_2_3_0 road_3_3_1"/>
	</vehicle>
	<vehicle id="83" depart="45">
		<route edges="road_3_0_1 road_3_1_1 road_3_2_1 road_3_3_2 road_2_3_1"/>
	</vehicle>
	<person id="89" depart="45.00">
        <walk edges="road_2_3_0 road_2_3_2"/>
    </person>
    <person id="90" depart="45.00">
        <walk edges="road_4_0_1 road_3_1_0 road_3_1_1 road_3_2_1 road_3_3_1"/>
    </person>
    <person id="91" depart="45.00">
        <walk edges="road_5_3_2 road_3_3_0 road_3_2_1 road_2_2_0 road_1_2_0 road_1_1_1 road_1_1_2"/>
    </person>
    <person id="92" depart="46.00">
        <walk edges="road_2_2_2 road_2_1_1 road_2_1_3"/>
    </person>
    <person id="93" depart="46.00">
        <walk edges="road_4_2_3 road_3_2_0 road_2_2_0 road_1_2_0 road_1_3_3"/>
    </person>
    <person id="94" depart="46.00">
        <walk edges="road_1_2_3 road_1_2_0 road_2_2_1 road_2_3_1"/>
    </person>
    <person id="95" depart="46.00">
        <walk edges="road_2_3_0 road_2_2_1 road_2_1_1 road_2_0_1"/>
    </person>
	<vehicle id="84" depart="48">
		<route edges="road_0_1_0 road_1_1_3"/>
	</vehicle>
	<vehicle id="85" depart="48">
		<route edges="road_5_3_2 road_4_3_2 road_3_3_2 road_2_3_2 road_1_3_1"/>
	</vehicle>
	<vehicle id="86" depart="48">
		<route edges="road_4_0_1 road_4_1_0"/>
	</vehicle>
	<vehicle id="87" depart="48">
		<route edges="road_1_0_1 road_1_1_0 road_2_1_0 road_3_1_3"/>
	</vehicle>
	<vehicle id="88" depart="48">
		<route edges="road_2_0_1 road_2_1_2 road_1_1_3"/>
	</vehicle>
	<person id="96" depart="48.00">
        <walk edges="road_1_3_3 road_1_3_0 road_2_3_0 road_3_3_0 road_4_3_3"/>
    </person>
    <person id="97" depart="48.00">
        <walk edges="road_2_3_1 road_2_3_0 road_3_3_0 road_4_2_1 road_4_2_3"/>
    </person>
    <person id="98" depart="49.00">
        <walk edges="road_3_1_2 road_1_1_0 road_1_0_1"/>
    </person>
    <person id="99" depart="49.00">
        <walk edges="road_5_3_2 road_4_2_1"/>
    </person>
    <person id="100" depart="49.00">
        <walk edges="road_5_2_2 road_4_3_3"/>
    </person>
	<vehicle id="89" depart="50">
		<route edges="road_0_2_0 road_1_2_3 road_1_1_0 road_2_1_3"/>
	</vehicle>
	<vehicle id="90" depart="50">
		<route edges="road_0_3_0 road_1_3_0 road_2_3_0 road_3_3_3 road_3_2_3 road_3_1_2 road_2_1_2 road_1_1_1 road_1_2_1 road_1_3_1"/>
	</vehicle>
	<vehicle id="91" depart="50">
		<route edges="road_2_4_3 road_2_3_3 road_2_2_2 road_1_2_2"/>
	</vehicle>
	<vehicle id="92" depart="50">
		<route edges="road_4_4_3 road_4_3_3 road_4_2_3 road_4_1_2 road_3_1_1 road_3_2_1 road_3_3_2 road_2_3_2 road_1_3_3 road_1_2_3 road_1_1_3"/>
	</vehicle>
	<vehicle id="93" depart="50">
		<route edges="road_3_4_3 road_3_3_3 road_3_2_3 road_3_1_2 road_2_1_2 road_1_1_2"/>
	</vehicle>
	<person id="101" depart="50.00">
        <walk edges="road_4_2_2 road_2_2_0 road_1_2_0 road_1_2_2"/>
    </person>
    <person id="102" depart="51.00">
        <walk edges="road_2_4_3 road_1_3_0 road_1_3_1"/>
    </person>
	<vehicle id="94" depart="52">
		<route edges="road_5_2_2 road_4_2_1 road_4_3_0"/>
	</vehicle>
	<vehicle id="95" depart="52">
		<route edges="road_1_4_3 road_1_3_3 road_1_2_3 road_1_1_3"/>
	</vehicle>
	<person id="103" depart="52.00">
        <walk edges="road_2_2_2 road_1_1_1 road_1_0_1"/>
    </person>
    <person id="104" depart="53.00">
        <walk edges="road_2_2_1 road_2_3_0 road_3_3_0 road_5_3_2"/>
    </person>
    <person id="105" depart="53.00">
        <walk edges="road_1_4_3 road_1_3_0 road_2_2_1 road_2_1_1 road_2_1_0 road_4_1_2"/>
    </person>
    <person id="106" depart="53.00">
        <walk edges="road_2_3_2 road_2_3_0"/>
    </person>
	<vehicle id="96" depart="54">
		<route edges="road_0_1_0 road_1_1_1 road_1_2_1 road_1_3_1"/>
	</vehicle>
	<vehicle id="97" depart="54">
		<route edges="road_3_0_1 road_3_1_1 road_3_2_2 road_2_2_2 road_1_2_3 road_1_1_3"/>
	</vehicle>
	<person id="107" depart="54.00">
        <walk edges="road_5_1_2 road_4_1_1 road_4_2_1 road_5_3_2"/>
    </person>
	<vehicle id="98" depart="55">
		<route edges="road_0_2_0 road_1_2_3 road_1_1_2"/>
	</vehicle>
	<vehicle id="99" depart="55">
		<route edges="road_0_3_0 road_1_3_0 road_2_3_3 road_2_2_3 road_2_1_2 road_1_1_1 road_1_2_1 road_1_3_2"/>
	</vehicle>
	<vehicle id="100" depart="55">
		<route edges="road_5_1_2 road_4_1_1 road_4_2_0"/>
	</vehicle>
	<person id="108" depart="55.00">
        <walk edges="road_3_1_2 road_3_1_1 road_3_2_1 road_3_4_3"/>
    </person>
    <person id="109" depart="55.00">
        <walk edges="road_1_2_1 road_1_2_0 road_2_1_1 road_2_1_0"/>
    </person>
    <person id="110" depart="55.00">
        <walk edges="road_5_2_2 road_3_2_0 road_3_1_1 road_3_1_3"/>
    </person>
	<vehicle id="101" depart="56">
		<route edges="road_4_0_1 road_4_1_1 road_4_2_1 road_4_3_2 road_3_3_2 road_2_3_2 road_1_3_2"/>
	</vehicle>
	<vehicle id="102" depart="56">
		<route edges="road_1_0_1 road_1_1_0 road_2_1_1 road_2_2_0 road_3_2_1 road_3_3_1"/>
	</vehicle>
	<vehicle id="103" depart="56">
		<route edges="road_2_0_1 road_2_1_0 road_3_1_3"/>
	</vehicle>
	<person id="111" depart="56.00">
        <walk edges="road_3_1_1 road_3_1_0 road_4_1_0"/>
    </person>
    <person id="112" depart="56.00">
        <walk edges="road_1_0_1 road_1_1_0 road_2_1_0 road_3_1_1 road_3_2_0"/>
    </person>
    <person id="113" depart="57.00">
        <walk edges="road_3_0_1 road_3_1_1 road_4_2_2"/>
    </person>
    <person id="114" depart="57.00">
        <walk edges="road_1_2_1 road_1_2_0 road_2_2_0 road_3_1_1 road_3_1_0 road_5_1_2"/>
    </person>
    <person id="115" depart="57.00">
        <walk edges="road_1_1_0 road_1_2_3"/>
    </person>
    <person id="116" depart="57.00">
        <walk edges="road_3_2_0 road_3_2_1 road_3_3_1"/>
    </person>
    <person id="117" depart="59.00">
        <walk edges="road_1_3_2 road_1_2_1 road_1_1_1 road_1_1_3"/>
    </person>
	<vehicle id="104" depart="60">
		<route edges="road_0_2_0 road_1_2_0 road_2_2_0 road_3_2_0 road_4_2_0"/>
	</vehicle>
	<vehicle id="105" depart="60">
		<route edges="road_0_1_0 road_1_1_0 road_2_1_0 road_3_1_3"/>
	</vehicle>
	<vehicle id="106" depart="60">
		<route edges="road_0_3_0 road_1_3_0 road_2_3_1"/>
	</vehicle>
	<vehicle id="107" depart="60">
		<route edges="road_5_3_2 road_4_3_3 road_4_2_3 road_4_1_2 road_3_1_3"/>
	</vehicle>
	<vehicle id="108" depart="60">
		<route edges="road_2_4_3 road_2_3_2 road_1_3_2"/>
	</vehicle>
	<vehicle id="109" depart="60">
		<route edges="road_4_4_3 road_4_3_2 road_3_3_2 road_2_3_2 road_1_3_2"/>
	</vehicle>
	<vehicle id="110" depart="60">
		<route edges="road_3_4_3 road_3_3_2 road_2_3_1"/>
	</vehicle>
	<vehicle id="111" depart="63">
		<route edges="road_3_0_1 road_3_1_2 road_2_1_2 road_1_1_2"/>
	</vehicle>
	<vehicle id="112" depart="64">
		<route edges="road_4_0_1 road_4_1_1 road_4_2_0"/>
	</vehicle>
	<vehicle id="113" depart="64">
		<route edges="road_1_0_1 road_1_1_1 road_1_2_0 road_2_2_3 road_2_1_2"/>
	</vehicle>
	<vehicle id="114" depart="64">
		<route edges="road_2_0_1 road_2_1_1 road_2_2_0 road_3_2_0 road_4_2_3 road_4_1_0"/>
	</vehicle>
	<vehicle id="115" depart="65">
		<route edges="road_0_2_0 road_1_2_3 road_1_1_3"/>
	</vehicle>
	<vehicle id="116" depart="65">
		<route edges="road_0_3_0 road_1_3_3 road_1_2_0 road_2_2_0 road_3_2_1 road_3_3_1"/>
	</vehicle>
	<vehicle id="117" depart="65">
		<route edges="road_5_2_2 road_4_2_2 road_3_2_2 road_2_2_2 road_1_2_2"/>
	</vehicle>
	<vehicle id="118" depart="65">
		<route edges="road_1_4_3 road_1_3_0 road_2_3_0 road_3_3_0 road_4_3_3 road_4_2_3 road_4_1_2 road_3_1_2 road_2_1_3"/>
	</vehicle>
	<person id="118" depart="65.00">
        <walk edges="road_4_3_1 road_3_3_0 road_2_3_0 road_1_3_0 road_1_3_3"/>
    </person>
    <person id="119" depart="65.00">
        <walk edges="road_3_2_0 road_3_2_2"/>
    </person>
    <person id="120" depart="65.00">
        <walk edges="road_2_2_3 road_2_2_0 road_3_2_0"/>
    </person>
    <person id="121" depart="65.00">
        <walk edges="road_3_1_0 road_4_1_1 road_4_3_3"/>
    </person>
	<vehicle id="119" depart="66">
		<route edges="road_0_1_0 road_1_1_0 road_2_1_0 road_3_1_0 road_4_1_3"/>
	</vehicle>
	<vehicle id="120" depart="66">
		<route edges="road_5_1_2 road_4_1_2 road_3_1_2 road_2_1_1 road_2_2_2 road_1_2_2"/>
	</vehicle>
	<person id="122" depart="66.00">
        <walk edges="road_1_3_0 road_2_3_0 road_3_4_3"/>
    </person>
    <person id="123" depart="66.00">
        <walk edges="road_1_3_2 road_1_2_1 road_2_2_2"/>
    </person>
    <person id="124" depart="66.00">
        <walk edges="road_3_3_1 road_3_2_1 road_3_1_1 road_2_1_0"/>
    </person>
    <person id="125" depart="66.00">
        <walk edges="road_2_1_1 road_2_1_0 road_3_1_0 road_4_1_0"/>
    </person>
    <person id="126" depart="66.00">
        <walk edges="road_1_1_0 road_1_1_1 road_1_2_1 road_2_3_2"/>
    </person>
    <person id="127" depart="66.00">
        <walk edges="road_5_3_2"/>
    </person>
    <person id="128" depart="66.00">
        <walk edges="road_1_1_0 road_1_1_1 road_1_2_1 road_1_3_1"/>
    </person>
    <person id="129" depart="67.00">
        <walk edges="road_1_4_3 road_1_3_0 road_2_3_0 road_3_3_0 road_4_3_3"/>
    </person>
    <person id="130" depart="69.00">
        <walk edges="road_4_3_0"/>
    </person>
    <person id="131" depart="69.00">
        <walk edges="road_2_2_0 road_1_2_0 road_1_2_1"/>
    </person>
    <person id="132" depart="69.00">
        <walk edges="road_4_2_1 road_3_2_0 road_3_3_3"/>
    </person>
    <person id="133" depart="69.00">
        <walk edges="road_3_2_1 road_3_3_0 road_5_3_2"/>
    </person>
    <person id="134" depart="69.00">
        <walk edges="road_3_3_0 road_2_3_0 road_1_3_0 road_1_2_1 road_1_1_1 road_0_1_0"/>
    </person>
    <person id="135" depart="69.00">
        <walk edges="road_4_2_0 road_3_2_0 road_3_1_1 road_2_1_0"/>
    </person>