<?xml version="1.0" encoding="UTF-8"?>

<!-- generated on 2021年05月18日 星期二 19时39分47秒 by Netedit Version 0.32.0
<?xml version="1.0" encoding="UTF-8"?>

<configuration xmlns:xsi="http://www.w3.org/2001/XMLSchema-instance" xsi:noNamespaceSchemaLocation="http://sumo.dlr.de/xsd/netconvertConfiguration.xsd">

    <input>
        <sumo-net-file value="/home/dl/桌面/WSN_multimdalMABRL/3x4/SUMO_MADDPG_4phase/MADDPG/env/Jinan/sumo344.net.xml"/>
    </input>

    <output>
        <output-file value="/home/dl/桌面/WSN_multimdalMABRL/3x4/SUMO_MADDPG_4phase/MADDPG/env/Jinan/sumo344.net.xml"/>
    </output>

    <processing>
        <no-internal-links value="false"/>
        <no-turnarounds value="true"/>
        <offset.disable-normalization value="true"/>
        <lefthand value="false"/>
        <junctions.corner-detail value="5"/>
        <rectangular-lane-cut value="false"/>
        <walkingareas value="false"/>
    </processing>

    <visualisation>
        <registry-viewport value="true"/>
    </visualisation>

</configuration>
-->

<net version="0.27" junctionCornerDetail="5" xmlns:xsi="http://www.w3.org/2001/XMLSchema-instance" xsi:noNamespaceSchemaLocation="http://sumo.dlr.de/xsd/net_file.xsd">

    <location netOffset="0.00,0.00" convBoundary="-400.00,-800.00,1600.00,2400.00" origBoundary="-10000000000.00,-10000000000.00,10000000000.00,10000000000.00" projParameter="!"/>

    <edge id=":intersection_0_1_w0" function="walkingarea">
        <lane id=":intersection_0_1_w0_0" index="0" allow="pedestrian" speed="1.00" length="15.30" width="2.00" shape="-400.00,-6.65 -400.00,-8.65 -400.00,8.65 -400.00,6.65"/>
    </edge>
    <edge id=":intersection_0_2_w0" function="walkingarea">
        <lane id=":intersection_0_2_w0_0" index="0" allow="pedestrian" speed="1.00" length="15.30" width="2.00" shape="-400.00,793.35 -400.00,791.35 -400.00,808.65 -400.00,806.65"/>
    </edge>
    <edge id=":intersection_0_3_w0" function="walkingarea">
        <lane id=":intersection_0_3_w0_0" index="0" allow="pedestrian" speed="1.00" length="15.30" width="2.00" shape="-400.00,1593.35 -400.00,1591.35 -400.00,1608.65 -400.00,1606.65"/>
    </edge>
    <edge id=":intersection_1_0_w0" function="walkingarea">
        <lane id=":intersection_1_0_w0_0" index="0" allow="pedestrian" speed="1.00" length="15.30" width="2.00" shape="6.65,-800.00 8.65,-800.00 -8.65,-800.00 -6.65,-800.00"/>
    </edge>
    <edge id=":intersection_1_1_0" function="internal">
        <lane id=":intersection_1_1_0_0" index="0" disallow="pedestrian" speed="13.89" length="4.00" shape="-4.95,10.15 -5.27,7.87 -6.15,6.42"/>
    </edge>
    <edge id=":intersection_1_1_1" function="internal">
        <lane id=":intersection_1_1_1_0" index="0" disallow="pedestrian" speed="13.89" length="20.30" shape="-4.95,10.15 -4.95,-10.15"/>
    </edge>
    <edge id=":intersection_1_1_2" function="internal">
        <lane id=":intersection_1_1_2_0" index="0" disallow="pedestrian" speed="13.89" length="11.91" shape="-1.65,10.15 -0.91,4.99 1.30,1.30 3.35,0.07"/>
    </edge>
    <edge id=":intersection_1_1_12" function="internal">
        <lane id=":intersection_1_1_12_0" index="0" speed="13.89" length="4.39" shape="-6.15,6.42 -6.25,6.25 -7.87,5.28 -10.15,4.95"/>
    </edge>
    <edge id=":intersection_1_1_13" function="internal">
        <lane id=":intersection_1_1_13_0" index="0" speed="13.89" length="7.12" shape="3.35,0.07 4.99,-0.91 10.15,-1.65"/>
    </edge>
    <edge id=":intersection_1_1_3" function="internal">
        <lane id=":intersection_1_1_3_0" index="0" disallow="pedestrian" speed="13.89" length="4.00" shape="10.15,4.95 7.87,5.27 6.42,6.15"/>
    </edge>
    <edge id=":intersection_1_1_4" function="internal">
        <lane id=":intersection_1_1_4_0" index="0" disallow="pedestrian" speed="13.89" length="20.30" shape="10.15,4.95 -10.15,4.95"/>
    </edge>
    <edge id=":intersection_1_1_5" function="internal">
        <lane id=":intersection_1_1_5_0" index="0" disallow="pedestrian" speed="13.89" length="11.91" shape="10.15,1.65 4.99,0.91 1.30,-1.30 0.07,-3.35"/>
    </edge>
    <edge id=":intersection_1_1_14" function="internal">
        <lane id=":intersection_1_1_14_0" index="0" speed="13.89" length="4.39" shape="6.42,6.15 6.25,6.25 5.28,7.87 4.95,10.15"/>
    </edge>
    <edge id=":intersection_1_1_15" function="internal">
        <lane id=":intersection_1_1_15_0" index="0" speed="13.89" length="7.12" shape="0.07,-3.35 -0.91,-4.99 -1.65,-10.15"/>
    </edge>
    <edge id=":intersection_1_1_6" function="internal">
        <lane id=":intersection_1_1_6_0" index="0" disallow="pedestrian" speed="13.89" length="4.00" shape="4.95,-10.15 5.27,-7.88 6.15,-6.42"/>
    </edge>
    <edge id=":intersection_1_1_7" function="internal">
        <lane id=":intersection_1_1_7_0" index="0" disallow="pedestrian" speed="13.89" length="20.30" shape="4.95,-10.15 4.95,10.15"/>
    </edge>
    <edge id=":intersection_1_1_8" function="internal">
        <lane id=":intersection_1_1_8_0" index="0" disallow="pedestrian" speed="13.89" length="11.91" shape="1.65,-10.15 0.91,-4.99 -1.30,-1.30 -3.35,-0.07"/>
    </edge>
    <edge id=":intersection_1_1_16" function="internal">
        <lane id=":intersection_1_1_16_0" index="0" speed="13.89" length="4.39" shape="6.15,-6.42 6.25,-6.25 7.87,-5.28 10.15,-4.95"/>
    </edge>
    <edge id=":intersection_1_1_17" function="internal">
        <lane id=":intersection_1_1_17_0" index="0" speed="13.89" length="7.12" shape="-3.35,-0.07 -4.99,0.91 -10.15,1.65"/>
    </edge>
    <edge id=":intersection_1_1_9" function="internal">
        <lane id=":intersection_1_1_9_0" index="0" disallow="pedestrian" speed="13.89" length="4.00" shape="-10.15,-4.95 -7.87,-5.27 -6.42,-6.15"/>
    </edge>
    <edge id=":intersection_1_1_10" function="internal">
        <lane id=":intersection_1_1_10_0" index="0" disallow="pedestrian" speed="13.89" length="20.30" shape="-10.15,-4.95 10.15,-4.95"/>
    </edge>
    <edge id=":intersection_1_1_11" function="internal">
        <lane id=":intersection_1_1_11_0" index="0" disallow="pedestrian" speed="13.89" length="11.91" shape="-10.15,-1.65 -4.99,-0.91 -1.30,1.30 -0.07,3.35"/>
    </edge>
    <edge id=":intersection_1_1_18" function="internal">
        <lane id=":intersection_1_1_18_0" index="0" speed="13.89" length="4.39" shape="-6.42,-6.15 -6.25,-6.25 -5.28,-7.87 -4.95,-10.15"/>
    </edge>
    <edge id=":intersection_1_1_19" function="internal">
        <lane id=":intersection_1_1_19_0" index="0" speed="13.89" length="7.12" shape="-0.07,3.35 0.91,4.99 1.65,10.15"/>
    </edge>
    <edge id=":intersection_1_1_c0" function="crossing" crossingEdges="road_1_1_1 road_1_2_3">
        <lane id=":intersection_1_1_c0_0" index="0" allow="pedestrian" speed="1.00" length="13.10" width="4.00" shape="6.55,8.15 -6.55,8.15"/>
    </edge>
    <edge id=":intersection_1_1_c1" function="crossing" crossingEdges="road_1_1_0 road_2_1_2">
        <lane id=":intersection_1_1_c1_0" index="0" allow="pedestrian" speed="1.00" length="13.10" width="4.00" shape="8.15,-6.55 8.15,6.55"/>
    </edge>
    <edge id=":intersection_1_1_c2" function="crossing" crossingEdges="road_1_1_3 road_1_0_1">
        <lane id=":intersection_1_1_c2_0" index="0" allow="pedestrian" speed="1.00" length="13.10" width="4.00" shape="-6.55,-8.15 6.55,-8.15"/>
    </edge>
    <edge id=":intersection_1_1_c3" function="crossing" crossingEdges="road_1_1_2 road_0_1_0">
        <lane id=":intersection_1_1_c3_0" index="0" allow="pedestrian" speed="1.00" length="13.10" width="4.00" shape="-8.15,6.55 -8.15,-6.55"/>
    </edge>
    <edge id=":intersection_1_1_w0" function="walkingarea">
        <lane id=":intersection_1_1_w0_0" index="0" allow="pedestrian" speed="1.00" length="2.94" width="4.00" shape="-10.15,6.65 -10.15,8.65 -8.65,10.15 -6.65,10.15 -6.65,9.05 -6.95,8.15 -7.45,7.45 -8.15,6.95 -9.05,6.65"/>
    </edge>
    <edge id=":intersection_1_1_w1" function="walkingarea">
        <lane id=":intersection_1_1_w1_0" index="0" allow="pedestrian" speed="1.00" length="2.94" width="4.00" shape="6.65,10.15 8.65,10.15 10.15,8.65 10.15,6.65 9.05,6.65 8.15,6.95 7.45,7.45 6.95,8.15 6.65,9.05"/>
    </edge>
    <edge id=":intersection_1_1_w2" function="walkingarea">
        <lane id=":intersection_1_1_w2_0" index="0" allow="pedestrian" speed="1.00" length="2.94" width="4.00" shape="10.15,-6.65 10.15,-8.65 8.65,-10.15 6.65,-10.15 6.65,-9.05 6.95,-8.15 7.45,-7.45 8.15,-6.95 9.05,-6.65"/>
    </edge>
    <edge id=":intersection_1_1_w3" function="walkingarea">
        <lane id=":intersection_1_1_w3_0" index="0" allow="pedestrian" speed="1.00" length="2.94" width="4.00" shape="-6.65,-10.15 -8.65,-10.15 -10.15,-8.65 -10.15,-6.65 -9.05,-6.65 -8.15,-6.95 -7.45,-7.45 -6.95,-8.15 -6.65,-9.05"/>
    </edge>
    <edge id=":intersection_1_2_0" function="internal">
        <lane id=":intersection_1_2_0_0" index="0" disallow="pedestrian" speed="13.89" length="4.00" shape="-4.95,810.15 -5.27,807.88 -6.15,806.42"/>
    </edge>
    <edge id=":intersection_1_2_1" function="internal">
        <lane id=":intersection_1_2_1_0" index="0" disallow="pedestrian" speed="13.89" length="20.30" shape="-4.95,810.15 -4.95,789.85"/>
    </edge>
    <edge id=":intersection_1_2_2" function="internal">
        <lane id=":intersection_1_2_2_0" index="0" disallow="pedestrian" speed="13.89" length="11.91" shape="-1.65,810.15 -0.91,804.99 1.30,801.30 3.35,800.07"/>
    </edge>
    <edge id=":intersection_1_2_12" function="internal">
        <lane id=":intersection_1_2_12_0" index="0" speed="13.89" length="4.39" shape="-6.15,806.42 -6.25,806.25 -7.87,805.28 -10.15,804.95"/>
    </edge>
    <edge id=":intersection_1_2_13" function="internal">
        <lane id=":intersection_1_2_13_0" index="0" speed="13.89" length="7.12" shape="3.35,800.07 4.99,799.09 10.15,798.35"/>
    </edge>
    <edge id=":intersection_1_2_3" function="internal">
        <lane id=":intersection_1_2_3_0" index="0" disallow="pedestrian" speed="13.89" length="4.00" shape="10.15,804.95 7.87,805.27 6.42,806.15"/>
    </edge>
    <edge id=":intersection_1_2_4" function="internal">
        <lane id=":intersection_1_2_4_0" index="0" disallow="pedestrian" speed="13.89" length="20.30" shape="10.15,804.95 -10.15,804.95"/>
    </edge>
    <edge id=":intersection_1_2_5" function="internal">
        <lane id=":intersection_1_2_5_0" index="0" disallow="pedestrian" speed="13.89" length="11.91" shape="10.15,801.65 4.99,800.91 1.30,798.70 0.07,796.65"/>
    </edge>
    <edge id=":intersection_1_2_14" function="internal">
        <lane id=":intersection_1_2_14_0" index="0" speed="13.89" length="4.39" shape="6.42,806.15 6.25,806.25 5.27,807.88 4.95,810.15"/>
    </edge>
    <edge id=":intersection_1_2_15" function="internal">
        <lane id=":intersection_1_2_15_0" index="0" speed="13.89" length="7.12" shape="0.07,796.65 -0.91,795.01 -1.65,789.85"/>
    </edge>
    <edge id=":intersection_1_2_6" function="internal">
        <lane id=":intersection_1_2_6_0" index="0" disallow="pedestrian" speed="13.89" length="4.00" shape="4.95,789.85 5.27,792.12 6.15,793.58"/>
    </edge>
    <edge id=":intersection_1_2_7" function="internal">
        <lane id=":intersection_1_2_7_0" index="0" disallow="pedestrian" speed="13.89" length="20.30" shape="4.95,789.85 4.95,810.15"/>
    </edge>
    <edge id=":intersection_1_2_8" function="internal">
        <lane id=":intersection_1_2_8_0" index="0" disallow="pedestrian" speed="13.89" length="11.91" shape="1.65,789.85 0.91,795.01 -1.30,798.70 -3.35,799.93"/>
    </edge>
    <edge id=":intersection_1_2_16" function="internal">
        <lane id=":intersection_1_2_16_0" index="0" speed="13.89" length="4.39" shape="6.15,793.58 6.25,793.75 7.87,794.72 10.15,795.05"/>
    </edge>
    <edge id=":intersection_1_2_17" function="internal">
        <lane id=":intersection_1_2_17_0" index="0" speed="13.89" length="7.12" shape="-3.35,799.93 -4.99,800.91 -10.15,801.65"/>
    </edge>
    <edge id=":intersection_1_2_9" function="internal">
        <lane id=":intersection_1_2_9_0" index="0" disallow="pedestrian" speed="13.89" length="4.00" shape="-10.15,795.05 -7.87,794.73 -6.42,793.85"/>
    </edge>
    <edge id=":intersection_1_2_10" function="internal">
        <lane id=":intersection_1_2_10_0" index="0" disallow="pedestrian" speed="13.89" length="20.30" shape="-10.15,795.05 10.15,795.05"/>
    </edge>
    <edge id=":intersection_1_2_11" function="internal">
        <lane id=":intersection_1_2_11_0" index="0" disallow="pedestrian" speed="13.89" length="11.91" shape="-10.15,798.35 -4.99,799.09 -1.30,801.30 -0.07,803.35"/>
    </edge>
    <edge id=":intersection_1_2_18" function="internal">
        <lane id=":intersection_1_2_18_0" index="0" speed="13.89" length="4.39" shape="-6.42,793.85 -6.25,793.75 -5.28,792.12 -4.95,789.85"/>
    </edge>
    <edge id=":intersection_1_2_19" function="internal">
        <lane id=":intersection_1_2_19_0" index="0" speed="13.89" length="7.12" shape="-0.07,803.35 0.91,804.99 1.65,810.15"/>
    </edge>
    <edge id=":intersection_1_2_c0" function="crossing" crossingEdges="road_1_2_1 road_1_3_3">
        <lane id=":intersection_1_2_c0_0" index="0" allow="pedestrian" speed="1.00" length="13.10" width="4.00" shape="6.55,808.15 -6.55,808.15"/>
    </edge>
    <edge id=":intersection_1_2_c1" function="crossing" crossingEdges="road_1_2_0 road_2_2_2">
        <lane id=":intersection_1_2_c1_0" index="0" allow="pedestrian" speed="1.00" length="13.10" width="4.00" shape="8.15,793.45 8.15,806.55"/>
    </edge>
    <edge id=":intersection_1_2_c2" function="crossing" crossingEdges="road_1_2_3 road_1_1_1">
        <lane id=":intersection_1_2_c2_0" index="0" allow="pedestrian" speed="1.00" length="13.10" width="4.00" shape="-6.55,791.85 6.55,791.85"/>
    </edge>
    <edge id=":intersection_1_2_c3" function="crossing" crossingEdges="road_1_2_2 road_0_2_0">
        <lane id=":intersection_1_2_c3_0" index="0" allow="pedestrian" speed="1.00" length="13.10" width="4.00" shape="-8.15,806.55 -8.15,793.45"/>
    </edge>
    <edge id=":intersection_1_2_w0" function="walkingarea">
        <lane id=":intersection_1_2_w0_0" index="0" allow="pedestrian" speed="1.00" length="2.94" width="4.00" shape="-10.15,806.65 -10.15,808.65 -8.65,810.15 -6.65,810.15 -6.65,809.05 -6.95,808.15 -7.45,807.45 -8.15,806.95 -9.05,806.65"/>
    </edge>
    <edge id=":intersection_1_2_w1" function="walkingarea">
        <lane id=":intersection_1_2_w1_0" index="0" allow="pedestrian" speed="1.00" length="2.94" width="4.00" shape="6.65,810.15 8.65,810.15 10.15,808.65 10.15,806.65 9.05,806.65 8.15,806.95 7.45,807.45 6.95,808.15 6.65,809.05"/>
    </edge>
    <edge id=":intersection_1_2_w2" function="walkingarea">
        <lane id=":intersection_1_2_w2_0" index="0" allow="pedestrian" speed="1.00" length="2.94" width="4.00" shape="10.15,793.35 10.15,791.35 8.65,789.85 6.65,789.85 6.65,790.95 6.95,791.85 7.45,792.55 8.15,793.05 9.05,793.35"/>
    </edge>
    <edge id=":intersection_1_2_w3" function="walkingarea">
        <lane id=":intersection_1_2_w3_0" index="0" allow="pedestrian" speed="1.00" length="2.94" width="4.00" shape="-6.65,789.85 -8.65,789.85 -10.15,791.35 -10.15,793.35 -9.05,793.35 -8.15,793.05 -7.45,792.55 -6.95,791.85 -6.65,790.95"/>
    </edge>
    <edge id=":intersection_1_3_0" function="internal">
        <lane id=":intersection_1_3_0_0" index="0" disallow="pedestrian" speed="13.89" length="4.00" shape="-4.95,1610.15 -5.27,1607.88 -6.15,1606.42"/>
    </edge>
    <edge id=":intersection_1_3_1" function="internal">
        <lane id=":intersection_1_3_1_0" index="0" disallow="pedestrian" speed="13.89" length="20.30" shape="-4.95,1610.15 -4.95,1589.85"/>
    </edge>
    <edge id=":intersection_1_3_2" function="internal">
        <lane id=":intersection_1_3_2_0" index="0" disallow="pedestrian" speed="13.89" length="11.91" shape="-1.65,1610.15 -0.91,1604.99 1.30,1601.30 3.35,1600.07"/>
    </edge>
    <edge id=":intersection_1_3_12" function="internal">
        <lane id=":intersection_1_3_12_0" index="0" speed="13.89" length="4.39" shape="-6.15,1606.42 -6.25,1606.25 -7.87,1605.28 -10.15,1604.95"/>
    </edge>
    <edge id=":intersection_1_3_13" function="internal">
        <lane id=":intersection_1_3_13_0" index="0" speed="13.89" length="7.12" shape="3.35,1600.07 4.99,1599.09 10.15,1598.35"/>
    </edge>
    <edge id=":intersection_1_3_3" function="internal">
        <lane id=":intersection_1_3_3_0" index="0" disallow="pedestrian" speed="13.89" length="4.00" shape="10.15,1604.95 7.87,1605.28 6.42,1606.15"/>
    </edge>
    <edge id=":intersection_1_3_4" function="internal">
        <lane id=":intersection_1_3_4_0" index="0" disallow="pedestrian" speed="13.89" length="20.30" shape="10.15,1604.95 -10.15,1604.95"/>
    </edge>
    <edge id=":intersection_1_3_5" function="internal">
        <lane id=":intersection_1_3_5_0" index="0" disallow="pedestrian" speed="13.89" length="11.91" shape="10.15,1601.65 4.99,1600.91 1.30,1598.70 0.07,1596.65"/>
    </edge>
    <edge id=":intersection_1_3_14" function="internal">
        <lane id=":intersection_1_3_14_0" index="0" speed="13.89" length="4.39" shape="6.42,1606.15 6.25,1606.25 5.28,1607.88 4.95,1610.15"/>
    </edge>
    <edge id=":intersection_1_3_15" function="internal">
        <lane id=":intersection_1_3_15_0" index="0" speed="13.89" length="7.12" shape="0.07,1596.65 -0.91,1595.01 -1.65,1589.85"/>
    </edge>
    <edge id=":intersection_1_3_6" function="internal">
        <lane id=":intersection_1_3_6_0" index="0" disallow="pedestrian" speed="13.89" length="4.00" shape="4.95,1589.85 5.27,1592.12 6.15,1593.58"/>
    </edge>
    <edge id=":intersection_1_3_7" function="internal">
        <lane id=":intersection_1_3_7_0" index="0" disallow="pedestrian" speed="13.89" length="20.30" shape="4.95,1589.85 4.95,1610.15"/>
    </edge>
    <edge id=":intersection_1_3_8" function="internal">
        <lane id=":intersection_1_3_8_0" index="0" disallow="pedestrian" speed="13.89" length="11.91" shape="1.65,1589.85 0.91,1595.01 -1.30,1598.70 -3.35,1599.93"/>
    </edge>
    <edge id=":intersection_1_3_16" function="internal">
        <lane id=":intersection_1_3_16_0" index="0" speed="13.89" length="4.39" shape="6.15,1593.58 6.25,1593.75 7.87,1594.72 10.15,1595.05"/>
    </edge>
    <edge id=":intersection_1_3_17" function="internal">
        <lane id=":intersection_1_3_17_0" index="0" speed="13.89" length="7.12" shape="-3.35,1599.93 -4.99,1600.91 -10.15,1601.65"/>
    </edge>
    <edge id=":intersection_1_3_9" function="internal">
        <lane id=":intersection_1_3_9_0" index="0" disallow="pedestrian" speed="13.89" length="4.00" shape="-10.15,1595.05 -7.87,1594.72 -6.42,1593.85"/>
    </edge>
    <edge id=":intersection_1_3_10" function="internal">
        <lane id=":intersection_1_3_10_0" index="0" disallow="pedestrian" speed="13.89" length="20.30" shape="-10.15,1595.05 10.15,1595.05"/>
    </edge>
    <edge id=":intersection_1_3_11" function="internal">
        <lane id=":intersection_1_3_11_0" index="0" disallow="pedestrian" speed="13.89" length="11.91" shape="-10.15,1598.35 -4.99,1599.09 -1.30,1601.30 -0.07,1603.35"/>
    </edge>
    <edge id=":intersection_1_3_18" function="internal">
        <lane id=":intersection_1_3_18_0" index="0" speed="13.89" length="4.39" shape="-6.42,1593.85 -6.25,1593.75 -5.28,1592.12 -4.95,1589.85"/>
    </edge>
    <edge id=":intersection_1_3_19" function="internal">
        <lane id=":intersection_1_3_19_0" index="0" speed="13.89" length="7.12" shape="-0.07,1603.35 0.91,1604.99 1.65,1610.15"/>
    </edge>
    <edge id=":intersection_1_3_c0" function="crossing" crossingEdges="road_1_3_1 road_1_4_3">
        <lane id=":intersection_1_3_c0_0" index="0" allow="pedestrian" speed="1.00" length="13.10" width="4.00" shape="6.55,1608.15 -6.55,1608.15"/>
    </edge>
    <edge id=":intersection_1_3_c1" function="crossing" crossingEdges="road_1_3_0 road_2_3_2">
        <lane id=":intersection_1_3_c1_0" index="0" allow="pedestrian" speed="1.00" length="13.10" width="4.00" shape="8.15,1593.45 8.15,1606.55"/>
    </edge>
    <edge id=":intersection_1_3_c2" function="crossing" crossingEdges="road_1_3_3 road_1_2_1">
        <lane id=":intersection_1_3_c2_0" index="0" allow="pedestrian" speed="1.00" length="13.10" width="4.00" shape="-6.55,1591.85 6.55,1591.85"/>
    </edge>
    <edge id=":intersection_1_3_c3" function="crossing" crossingEdges="road_1_3_2 road_0_3_0">
        <lane id=":intersection_1_3_c3_0" index="0" allow="pedestrian" speed="1.00" length="13.10" width="4.00" shape="-8.15,1606.55 -8.15,1593.45"/>
    </edge>
    <edge id=":intersection_1_3_w0" function="walkingarea">
        <lane id=":intersection_1_3_w0_0" index="0" allow="pedestrian" speed="1.00" length="2.94" width="4.00" shape="-10.15,1606.55 -10.15,1606.65 -10.15,1608.65 -8.65,1610.15 -6.65,1610.15 -6.65,1609.05 -6.95,1608.15 -7.45,1607.45 -8.15,1606.95 -9.05,1606.65"/>
    </edge>
    <edge id=":intersection_1_3_w1" function="walkingarea">
        <lane id=":intersection_1_3_w1_0" index="0" allow="pedestrian" speed="1.00" length="2.94" width="4.00" shape="6.65,1610.15 8.65,1610.15 10.15,1608.65 10.15,1606.65 10.15,1606.55 9.05,1606.65 8.15,1606.95 7.45,1607.45 6.95,1608.15 6.65,1609.05"/>
    </edge>
    <edge id=":intersection_1_3_w2" function="walkingarea">
        <lane id=":intersection_1_3_w2_0" index="0" allow="pedestrian" speed="1.00" length="2.94" width="4.00" shape="10.15,1593.45 10.15,1593.35 10.15,1591.35 8.65,1589.85 6.65,1589.85 6.65,1590.95 6.95,1591.85 7.45,1592.55 8.15,1593.05 9.05,1593.35"/>
    </edge>
    <edge id=":intersection_1_3_w3" function="walkingarea">
        <lane id=":intersection_1_3_w3_0" index="0" allow="pedestrian" speed="1.00" length="2.94" width="4.00" shape="-6.65,1589.85 -8.65,1589.85 -10.15,1591.35 -10.15,1593.35 -10.15,1593.45 -9.05,1593.35 -8.15,1593.05 -7.45,1592.55 -6.95,1591.85 -6.65,1590.95"/>
    </edge>
    <edge id=":intersection_1_4_w0" function="walkingarea">
        <lane id=":intersection_1_4_w0_0" index="0" allow="pedestrian" speed="1.00" length="15.30" width="2.00" shape="-6.65,2400.00 -8.65,2400.00 8.65,2400.00 6.65,2400.00"/>
    </edge>
    <edge id=":intersection_2_0_w0" function="walkingarea">
        <lane id=":intersection_2_0_w0_0" index="0" allow="pedestrian" speed="1.00" length="15.30" width="2.00" shape="406.65,-800.00 408.65,-800.00 391.35,-800.00 393.35,-800.00"/>
    </edge>
    <edge id=":intersection_2_1_0" function="internal">
        <lane id=":intersection_2_1_0_0" index="0" disallow="pedestrian" speed="13.89" length="4.00" shape="395.05,10.15 394.73,7.87 393.85,6.42"/>
    </edge>
    <edge id=":intersection_2_1_1" function="internal">
        <lane id=":intersection_2_1_1_0" index="0" disallow="pedestrian" speed="13.89" length="20.30" shape="395.05,10.15 395.05,-10.15"/>
    </edge>
    <edge id=":intersection_2_1_2" function="internal">
        <lane id=":intersection_2_1_2_0" index="0" disallow="pedestrian" speed="13.89" length="11.91" shape="398.35,10.15 399.09,4.99 401.30,1.30 403.35,0.07"/>
    </edge>
    <edge id=":intersection_2_1_12" function="internal">
        <lane id=":intersection_2_1_12_0" index="0" speed="13.89" length="4.39" shape="393.85,6.42 393.75,6.25 392.12,5.28 389.85,4.95"/>
    </edge>
    <edge id=":intersection_2_1_13" function="internal">
        <lane id=":intersection_2_1_13_0" index="0" speed="13.89" length="7.12" shape="403.35,0.07 404.99,-0.91 410.15,-1.65"/>
    </edge>
    <edge id=":intersection_2_1_3" function="internal">
        <lane id=":intersection_2_1_3_0" index="0" disallow="pedestrian" speed="13.89" length="4.00" shape="410.15,4.95 407.87,5.27 406.42,6.15"/>
    </edge>
    <edge id=":intersection_2_1_4" function="internal">
        <lane id=":intersection_2_1_4_0" index="0" disallow="pedestrian" speed="13.89" length="20.30" shape="410.15,4.95 389.85,4.95"/>
    </edge>
    <edge id=":intersection_2_1_5" function="internal">
        <lane id=":intersection_2_1_5_0" index="0" disallow="pedestrian" speed="13.89" length="11.91" shape="410.15,1.65 404.99,0.91 401.30,-1.30 400.07,-3.35"/>
    </edge>
    <edge id=":intersection_2_1_14" function="internal">
        <lane id=":intersection_2_1_14_0" index="0" speed="13.89" length="4.39" shape="406.42,6.15 406.25,6.25 405.27,7.87 404.95,10.15"/>
    </edge>
    <edge id=":intersection_2_1_15" function="internal">
        <lane id=":intersection_2_1_15_0" index="0" speed="13.89" length="7.12" shape="400.07,-3.35 399.09,-4.99 398.35,-10.15"/>
    </edge>
    <edge id=":intersection_2_1_6" function="internal">
        <lane id=":intersection_2_1_6_0" index="0" disallow="pedestrian" speed="13.89" length="4.00" shape="404.95,-10.15 405.27,-7.88 406.15,-6.42"/>
    </edge>
    <edge id=":intersection_2_1_7" function="internal">
        <lane id=":intersection_2_1_7_0" index="0" disallow="pedestrian" speed="13.89" length="20.30" shape="404.95,-10.15 404.95,10.15"/>
    </edge>
    <edge id=":intersection_2_1_8" function="internal">
        <lane id=":intersection_2_1_8_0" index="0" disallow="pedestrian" speed="13.89" length="11.91" shape="401.65,-10.15 400.91,-4.99 398.70,-1.30 396.65,-0.07"/>
    </edge>
    <edge id=":intersection_2_1_16" function="internal">
        <lane id=":intersection_2_1_16_0" index="0" speed="13.89" length="4.39" shape="406.15,-6.42 406.25,-6.25 407.88,-5.28 410.15,-4.95"/>
    </edge>
    <edge id=":intersection_2_1_17" function="internal">
        <lane id=":intersection_2_1_17_0" index="0" speed="13.89" length="7.12" shape="396.65,-0.07 395.01,0.91 389.85,1.65"/>
    </edge>
    <edge id=":intersection_2_1_9" function="internal">
        <lane id=":intersection_2_1_9_0" index="0" disallow="pedestrian" speed="13.89" length="4.00" shape="389.85,-4.95 392.13,-5.27 393.58,-6.15"/>
    </edge>
    <edge id=":intersection_2_1_10" function="internal">
        <lane id=":intersection_2_1_10_0" index="0" disallow="pedestrian" speed="13.89" length="20.30" shape="389.85,-4.95 410.15,-4.95"/>
    </edge>
    <edge id=":intersection_2_1_11" function="internal">
        <lane id=":intersection_2_1_11_0" index="0" disallow="pedestrian" speed="13.89" length="11.91" shape="389.85,-1.65 395.01,-0.91 398.70,1.30 399.93,3.35"/>
    </edge>
    <edge id=":intersection_2_1_18" function="internal">
        <lane id=":intersection_2_1_18_0" index="0" speed="13.89" length="4.39" shape="393.58,-6.15 393.75,-6.25 394.73,-7.87 395.05,-10.15"/>
    </edge>
    <edge id=":intersection_2_1_19" function="internal">
        <lane id=":intersection_2_1_19_0" index="0" speed="13.89" length="7.12" shape="399.93,3.35 400.91,4.99 401.65,10.15"/>
    </edge>
    <edge id=":intersection_2_1_c0" function="crossing" crossingEdges="road_2_1_1 road_2_2_3">
        <lane id=":intersection_2_1_c0_0" index="0" allow="pedestrian" speed="1.00" length="13.10" width="4.00" shape="406.55,8.15 393.45,8.15"/>
    </edge>
    <edge id=":intersection_2_1_c1" function="crossing" crossingEdges="road_2_1_0 road_3_1_2">
        <lane id=":intersection_2_1_c1_0" index="0" allow="pedestrian" speed="1.00" length="13.10" width="4.00" shape="408.15,-6.55 408.15,6.55"/>
    </edge>
    <edge id=":intersection_2_1_c2" function="crossing" crossingEdges="road_2_1_3 road_2_0_1">
        <lane id=":intersection_2_1_c2_0" index="0" allow="pedestrian" speed="1.00" length="13.10" width="4.00" shape="393.45,-8.15 406.55,-8.15"/>
    </edge>
    <edge id=":intersection_2_1_c3" function="crossing" crossingEdges="road_2_1_2 road_1_1_0">
        <lane id=":intersection_2_1_c3_0" index="0" allow="pedestrian" speed="1.00" length="13.10" width="4.00" shape="391.85,6.55 391.85,-6.55"/>
    </edge>
    <edge id=":intersection_2_1_w0" function="walkingarea">
        <lane id=":intersection_2_1_w0_0" index="0" allow="pedestrian" speed="1.00" length="2.94" width="4.00" shape="389.85,6.65 389.85,8.65 391.35,10.15 393.35,10.15 393.35,9.05 393.05,8.15 392.55,7.45 391.85,6.95 390.95,6.65"/>
    </edge>
    <edge id=":intersection_2_1_w1" function="walkingarea">
        <lane id=":intersection_2_1_w1_0" index="0" allow="pedestrian" speed="1.00" length="2.94" width="4.00" shape="406.65,10.15 408.65,10.15 410.15,8.65 410.15,6.65 409.05,6.65 408.15,6.95 407.45,7.45 406.95,8.15 406.65,9.05"/>
    </edge>
    <edge id=":intersection_2_1_w2" function="walkingarea">
        <lane id=":intersection_2_1_w2_0" index="0" allow="pedestrian" speed="1.00" length="2.94" width="4.00" shape="410.15,-6.65 410.15,-8.65 408.65,-10.15 406.65,-10.15 406.65,-9.05 406.95,-8.15 407.45,-7.45 408.15,-6.95 409.05,-6.65"/>
    </edge>
    <edge id=":intersection_2_1_w3" function="walkingarea">
        <lane id=":intersection_2_1_w3_0" index="0" allow="pedestrian" speed="1.00" length="2.94" width="4.00" shape="393.35,-10.15 391.35,-10.15 389.85,-8.65 389.85,-6.65 390.95,-6.65 391.85,-6.95 392.55,-7.45 393.05,-8.15 393.35,-9.05"/>
    </edge>
    <edge id=":intersection_2_2_0" function="internal">
        <lane id=":intersection_2_2_0_0" index="0" disallow="pedestrian" speed="13.89" length="4.00" shape="395.05,810.15 394.73,807.88 393.85,806.42"/>
    </edge>
    <edge id=":intersection_2_2_1" function="internal">
        <lane id=":intersection_2_2_1_0" index="0" disallow="pedestrian" speed="13.89" length="20.30" shape="395.05,810.15 395.05,789.85"/>
    </edge>
    <edge id=":intersection_2_2_2" function="internal">
        <lane id=":intersection_2_2_2_0" index="0" disallow="pedestrian" speed="13.89" length="11.91" shape="398.35,810.15 399.09,804.99 401.30,801.30 403.35,800.07"/>
    </edge>
    <edge id=":intersection_2_2_12" function="internal">
        <lane id=":intersection_2_2_12_0" index="0" speed="13.89" length="4.39" shape="393.85,806.42 393.75,806.25 392.12,805.28 389.85,804.95"/>
    </edge>
    <edge id=":intersection_2_2_13" function="internal">
        <lane id=":intersection_2_2_13_0" index="0" speed="13.89" length="7.12" shape="403.35,800.07 404.99,799.09 410.15,798.35"/>
    </edge>