<routes xmlns:xsi="http://www.w3.org/2001/XMLSchema-instance" xsi:noNamespaceSchemaLocation="http://sumo.dlr.de/xsd/routes_file.xsd">
    <vehicle id="0" depart="0">
        <route edges="road_4_0_1 road_4_1_1 road_4_2_0"/>
    </vehicle>
    <vehicle id="1" depart="0">
        <route edges="road_0_1_0 road_1_1_0 road_2_1_0 road_3_1_3"/>
    </vehicle>
    <vehicle id="2" depart="0">
        <route edges="road_5_4_2 road_4_4_2 road_3_4_2 road_2_4_2 road_1_4_1"/>
    </vehicle>
    <vehicle id="3" depart="0">
        <route edges="road_0_2_0 road_1_2_3 road_1_1_3"/>
    </vehicle>
    <vehicle id="4" depart="0">
        <route edges="road_5_2_2 road_4_2_2 road_3_2_2 road_2_2_2 road_1_2_1 road_1_3_1 road_1_4_0 road_2_4_3 road_2_3_3 road_2_2_3 road_2_1_3"/>
    </vehicle>
    <vehicle id="5" depart="0">
        <route edges="road_1_0_1 road_1_1_1 road_1_2_1 road_1_3_1 road_1_4_1"/>
    </vehicle>
    <vehicle id="6" depart="0">
        <route edges="road_1_5_3 road_1_4_3 road_1_3_3 road_1_2_2"/>
    </vehicle>
    <vehicle id="7" depart="0">
        <route edges="road_0_4_0 road_1_4_0 road_2_4_0 road_3_4_3 road_3_3_2 road_2_3_1"/>
    </vehicle>
    <vehicle id="8" depart="0">
        <route edges="road_5_3_2 road_4_3_1 road_4_4_0"/>
    </vehicle>
    <person id="0" depart="0.00">
        <walk edges="road_3_3_2 road_1_3_0 road_0_3_0"/>
    </person>
    <person id="1" depart="0.00">
        <walk edges="road_2_0_1 road_2_1_1 road_2_2_1 road_2_3_1 road_1_4_0"/>
    </person>
    <person id="2" depart="0.00">
        <walk edges="road_4_0_1 road_4_1_1 road_4_2_1 road_3_3_0 road_3_3_1 road_3_4_1"/>
    </person>
    <person id="3" depart="0.00">
        <walk edges="road_4_4_0 road_3_4_0 road_2_4_0 road_2_3_1 road_1_3_0 road_1_2_1 road_1_1_1"/>
    </person>
    <person id="4" depart="0.00">
        <walk edges="road_2_3_2 road_0_3_0"/>
    </person>
    <person id="5" depart="0.00">
        <walk edges="road_1_4_0 road_2_3_1 road_2_2_1 road_2_2_0 road_3_1_1 road_3_0_1"/>
    </person>
    <person id="6" depart="0.00">
        <walk edges="road_0_3_0 road_1_3_2"/>
    </person>
    <person id="7" depart="0.00">
        <walk edges="road_3_3_2 road_3_2_1 road_3_1_1 road_3_1_2"/>
    </person>
    <person id="8" depart="3.00">
        <walk edges="road_1_4_0 road_2_3_1 road_2_2_1 road_3_2_2"/>
    </person>
    <vehicle id="9" depart="4">
        <route edges="road_0_4_0 road_1_4_0 road_2_4_0 road_3_4_0 road_4_4_0"/>
    </vehicle>
    <person id="9" depart="4.00">
        <walk edges="road_4_2_1 road_3_2_0 road_2_2_0 road_2_1_1 road_1_1_0 road_0_1_0"/>
    </person>
    <person id="10" depart="5.00">
        <walk edges="road_4_2_1 road_4_3_1 road_3_4_0 road_3_4_2"/>
    </person>
    <vehicle id="10" depart="7">
        <route edges="road_5_4_2 road_4_4_2 road_3_4_2 road_2_4_1"/>
    </vehicle>
    <person id="11" depart="7.00">
        <walk edges="road_2_2_0 road_1_2_0 road_1_2_3"/>
    </person>
    <vehicle id="11" depart="8">
        <route edges="road_0_4_0 road_1_4_1"/>
    </vehicle>
    <person id="12" depart="9.00">
        <walk edges="road_5_1_2 road_3_1_0 road_2_1_0 road_2_1_3"/>
    </person>
    <vehicle id="12" depart="10">
        <route edges="road_0_1_0 road_1_1_0 road_2_1_0 road_3_1_3"/>
    </vehicle>
    <person id="13" depart="11.00">
        <walk edges="road_1_1_2"/>
    </person>
    <person id="14" depart="11.00">
        <walk edges="road_4_3_0 road_4_2_1 road_3_2_0 road_3_2_3"/>
    </person>
    <vehicle id="13" depart="12">
        <route edges="road_0_4_0 road_1_4_0 road_2_4_3 road_2_3_0 road_3_3_0 road_4_3_0"/>
    </vehicle>
    <person id="15" depart="12.00">
        <walk edges="road_4_2_1 road_4_1_1 road_4_0_1"/>
    </person>
    <person id="16" depart="12.00">
        <walk edges="road_3_1_1 road_3_2_0 road_5_2_2"/>
    </person>
    <person id="17" depart="12.00">
        <walk edges="road_2_2_3 road_2_1_0 road_3_1_3"/>
    </person>
    <vehicle id="14" depart="13">
        <route edges="road_4_0_1 road_4_1_2 road_3_1_2 road_2_1_2 road_1_1_3"/>
    </vehicle>
    <vehicle id="15" depart="13">
        <route edges="road_5_3_2 road_4_3_1 road_4_4_1"/>
    </vehicle>
    <person id="18" depart="13.00">
        <walk edges="road_4_2_3 road_4_2_1 road_3_3_0"/>
    </person>
    <vehicle id="16" depart="14">
        <route edges="road_5_4_2 road_4_4_3 road_4_3_2 road_3_3_2 road_2_3_2 road_1_3_2"/>
    </vehicle>
    <person id="19" depart="15.00">
        <walk edges="road_4_3_1 road_3_3_0 road_3_2_1"/>
    </person>
    <vehicle id="17" depart="16">
        <route edges="road_0_4_0 road_1_4_0 road_2_4_0 road_3_4_3 road_3_3_3 road_3_2_2 road_2_2_2 road_1_2_2"/>
    </vehicle>
    <person id="20" depart="17.00">
        <walk edges="road_3_4_3 road_2_4_0 road_1_4_0 road_0_4_0"/>
    </person>
    <person id="21" depart="17.00">
        <walk edges="road_1_4_1 road_1_3_1 road_1_2_1 road_1_1_1 road_1_1_0 road_2_1_0"/>
    </person>
    <person id="22" depart="19.00">
        <walk edges="road_1_1_1 road_1_2_1 road_1_3_1 road_1_4_1"/>
    </person>
    <vehicle id="18" depart="20">
        <route edges="road_0_1_0 road_1_1_0 road_2_1_0 road_3_1_0 road_4_1_3"/>
    </vehicle>
    <vehicle id="19" depart="20">
        <route edges="road_0_4_0 road_1_4_3 road_1_3_0 road_2_3_0 road_3_3_0 road_4_3_0"/>
    </vehicle>
    <vehicle id="20" depart="21">
        <route edges="road_5_4_2 road_4_4_2 road_3_4_1"/>
    </vehicle>
    <person id="23" depart="21.00">
        <walk edges="road_1_1_3 road_1_1_0 road_2_0_1"/>
    </person>
    <person id="24" depart="22.00">
        <walk edges="road_3_3_1 road_3_2_1 road_2_2_0 road_2_2_2"/>
    </person>
    <person id="25" depart="22.00">
        <walk edges="road_2_2_2 road_1_3_3"/>
    </person>
    <vehicle id="21" depart="23">
        <route edges="road_1_0_1 road_1_1_1 road_1_2_1 road_1_3_1 road_1_4_1"/>
    </vehicle>
    <vehicle id="22" depart="23">
        <route edges="road_1_5_3 road_1_4_3 road_1_3_0 road_2_3_1 road_2_4_1"/>
    </vehicle>
    <person id="26" depart="23.00">
        <walk edges="road_1_5_3 road_1_4_0 road_2_4_0 road_3_4_0 road_4_4_3"/>
    </person>
    <person id="27" depart="23.00">
        <walk edges="road_3_3_2 road_3_2_1 road_3_2_3"/>
    </person>
    <vehicle id="23" depart="24">
        <route edges="road_0_4_0 road_1_4_3 road_1_3_3 road_1_2_3 road_1_1_2"/>
    </vehicle>
    <person id="28" depart="24.00">
        <walk edges="road_1_3_0 road_2_3_0 road_3_2_1 road_3_2_0 road_4_1_1 road_4_0_1"/>
    </person>
    <person id="29" depart="24.00">
        <walk edges="road_1_3_0 road_2_2_1 road_2_2_3"/>
    </person>
    <person id="30" depart="25.00">
        <walk edges="road_5_4_2 road_4_3_1 road_3_3_0 road_3_3_2"/>
    </person>
    <person id="31" depart="25.00">
        <walk edges="road_3_1_3 road_3_1_1 road_3_2_1 road_3_3_1 road_3_4_1"/>
    </person>
    <vehicle id="24" depart="26">
        <route edges="road_4_0_1 road_4_1_1 road_4_2_1 road_4_3_1 road_4_4_1"/>
    </vehicle>
    <vehicle id="25" depart="26">
        <route edges="road_5_3_2 road_4_3_1 road_4_4_1"/>
    </vehicle>
    <person id="32" depart="26.00">
        <walk edges="road_4_3_0 road_4_2_1 road_4_1_1 road_4_1_3"/>
    </person>
    <person id="33" depart="27.00">
        <walk edges="road_1_4_1 road_1_3_1 road_0_3_0"/>
    </person>
    <vehicle id="26" depart="28">
        <route edges="road_5_4_2 road_4_4_2 road_3_4_2 road_2_4_1"/>
    </vehicle>
    <vehicle id="27" depart="28">
        <route edges="road_0_4_0 road_1_4_3 road_1_3_3 road_1_2_2"/>
    </vehicle>
    <person id="34" depart="29.00">
        <walk edges="road_2_1_2 road_1_1_1 road_1_2_1 road_1_3_1 road_1_5_3"/>
    </person>
    <person id="35" depart="29.00">
        <walk edges="road_1_3_3 road_1_3_0 road_2_3_0 road_3_3_1 road_3_4_0 road_4_5_3"/>
    </person>
    <vehicle id="28" depart="30">
        <route edges="road_0_1_0 road_1_1_3"/>
    </vehicle>
    <vehicle id="29" depart="32">
        <route edges="road_0_4_0 road_1_4_0 road_2_4_1"/>
    </vehicle>
    <person id="36" depart="33.00">
        <walk edges="road_4_3_3 road_4_1_1 road_3_1_0 road_2_1_0 road_2_1_2"/>
    </person>
    <person id="37" depart="33.00">
        <walk edges="road_3_3_3 road_2_3_0"/>
    </person>
    <person id="38" depart="33.00">
        <walk edges="road_4_4_2 road_2_4_0 road_2_4_1"/>
    </person>
    <vehicle id="30" depart="35">
        <route edges="road_5_4_2 road_4_4_2 road_3_4_2 road_2_4_3 road_2_3_3 road_2_2_3 road_2_1_3"/>
    </vehicle>
    <person id="39" depart="35.00">
        <walk edges="road_1_5_3 road_1_4_2"/>
    </person>
    <vehicle id="31" depart="36">
        <route edges="road_0_4_0 road_1_4_3 road_1_3_2"/>
    </vehicle>
    <vehicle id="32" depart="37">
        <route edges="road_0_2_0 road_1_2_0 road_2_2_3 road_2_1_2 road_1_1_1 road_1_2_1 road_1_3_1 road_1_4_1"/>
    </vehicle>
    <vehicle id="33" depart="37">
        <route edges="road_5_2_2 road_4_2_2 road_3_2_2 road_2_2_1 road_2_3_1 road_2_4_1"/>
    </vehicle>
    <person id="40" depart="38.00">
        <walk edges="road_3_1_3 road_3_1_1 road_2_2_0 road_2_2_1 road_1_3_0 road_1_3_1 road_1_5_3"/>
    </person>
    <person id="41" depart="38.00">
        <walk edges="road_3_2_1 road_3_3_1 road_3_4_0 road_4_4_0"/>
    </person>
    <person id="42" depart="38.00">
        <walk edges="road_2_3_0 road_2_3_1 road_1_4_0"/>
    </person>
    <person id="43" depart="38.00">
        <walk edges="road_5_4_2 road_4_3_1 road_4_2_1 road_3_2_0 road_3_1_1 road_3_0_1"/>
    </person>
    <vehicle id="34" depart="39">
        <route edges="road_4_0_1 road_4_1_1 road_4_2_1 road_4_3_1 road_4_4_0"/>
    </vehicle>
    <vehicle id="35" depart="39">
        <route edges="road_5_3_2 road_4_3_2 road_3_3_2 road_2_3_2 road_1_3_3 road_1_2_3 road_1_1_3"/>
    </vehicle>
    <vehicle id="36" depart="40">
        <route edges="road_0_1_0 road_1_1_0 road_2_1_3"/>
    </vehicle>
    <vehicle id="37" depart="40">
        <route edges="road_0_4_0 road_1_4_0 road_2_4_0 road_3_4_0 road_4_4_0"/>
    </vehicle>
    <person id="44" depart="40.00">
        <walk edges="road_1_1_2 road_1_1_1 road_1_2_1 road_1_3_1 road_0_4_0"/>
    </person>
    <person id="45" depart="40.00">
        <walk edges="road_1_1_3 road_1_1_1 road_1_2_0 road_2_2_1 road_2_3_0 road_3_3_1"/>
    </person>
    <person id="46" depart="41.00">
        <walk edges="road_4_2_0 road_3_2_0 road_2_2_0 road_2_2_1 road_2_3_2"/>
    </person>
    <vehicle id="38" depart="42">
        <route edges="road_5_4_2 road_4_4_1"/>
    </vehicle>
    <person id="47" depart="42.00">
        <walk edges="road_1_1_0 road_2_2_3"/>
    </person>
    <person id="48" depart="42.00">
        <walk edges="road_5_4_2 road_4_3_1 road_4_2_1 road_3_2_0 road_3_1_1"/>
    </person>
    <vehicle id="39" depart="44">
        <route edges="road_0_4_0 road_1_4_0 road_2_4_3 road_2_3_3 road_2_2_3 road_2_1_3"/>
    </vehicle>
    <person id="49" depart="44.00">
        <walk edges="road_5_2_2 road_4_2_1 road_4_3_1"/>
    </person>
    <person id="50" depart="44.00">
        <walk edges="road_0_1_0 road_1_1_1 road_1_2_1 road_1_3_0 road_2_3_1 road_2_4_0 road_3_5_3"/>
    </person>
    <vehicle id="40" depart="46">
        <route edges="road_1_0_1 road_1_1_0 road_2_1_0 road_3_1_0 road_4_1_0"/>
    </vehicle>
    <vehicle id="41" depart="46">
        <route edges="road_1_5_3 road_1_4_3 road_1_3_3 road_1_2_3 road_1_1_0 road_2_1_0 road_3_1_3"/>
    </vehicle>
    <person id="51" depart="47.00">
        <walk edges="road_3_4_1 road_3_3_1 road_3_2_1 road_3_1_1"/>
    </person>
    <vehicle id="42" depart="48">
        <route edges="road_0_4_0 road_1_4_0 road_2_4_1"/>
    </vehicle>
    <vehicle id="43" depart="49">
        <route edges="road_5_4_2 road_4_4_2 road_3_4_2 road_2_4_1"/>
    </vehicle>
    <person id="52" depart="49.00">
        <walk edges="road_1_5_3 road_1_3_1 road_1_3_0 road_3_3_2"/>
    </person>
    <vehicle id="44" depart="50">
        <route edges="road_0_1_0 road_1_1_1 road_1_2_0 road_2_2_0 road_3_2_0 road_4_2_0"/>
    </vehicle>
    <person id="53" depart="50.00">
        <walk edges="road_1_1_3 road_1_1_1 road_1_2_0 road_2_3_3"/>
    </person>
    <person id="54" depart="50.00">
        <walk edges="road_2_4_1 road_2_3_1 road_2_3_0 road_3_2_1 road_3_2_0 road_4_1_1 road_5_1_2"/>
    </person>
    <person id="55" depart="51.00">
        <walk edges="road_4_3_3 road_3_3_0 road_2_3_0 road_2_3_1 road_1_4_0 road_1_5_3"/>
    </person>
    <person id="56" depart="51.00">
        <walk edges="road_3_0_1 road_3_1_1 road_2_2_0 road_1_2_0 road_1_2_1 road_1_3_1"/>
    </person>
    <vehicle id="45" depart="52">
        <route edges="road_4_0_1 road_4_1_2 road_3_1_2 road_2_1_2 road_1_1_2"/>
    </vehicle>
    <vehicle id="46" depart="52">
        <route edges="road_0_4_0 road_1_4_0 road_2_4_1"/>
    </vehicle>
    <vehicle id="47" depart="52">
        <route edges="road_5_3_2 road_4_3_2 road_3_3_1 road_3_4_0 road_4_4_0"/>
    </vehicle>
    <person id="57" depart="53.00">
        <walk edges="road_4_4_2 road_4_3_1 road_4_3_2"/>
    </person>
    <person id="58" depart="53.00">
        <walk edges="road_2_1_0 road_2_1_1 road_2_2_1 road_3_3_2"/>
    </person>
    <person id="59" depart="55.00">
        <walk edges="road_3_2_3 road_2_2_0 road_1_2_0 road_1_2_3"/>
    </person>
    <vehicle id="48" depart="56">
        <route edges="road_5_4_2 road_4_4_1"/>
    </vehicle>
    <vehicle id="49" depart="56">
        <route edges="road_0_4_0 road_1_4_0 road_2_4_0 road_3_4_3 road_3_3_2 road_2_3_3 road_2_2_2 road_1_2_2"/>
    </vehicle>
    <person id="60" depart="57.00">
        <walk edges="road_4_1_2 road_3_1_2"/>
    </person>
    <person id="61" depart="57.00">
        <walk edges="road_4_1_3 road_3_1_0 road_3_1_1"/>
    </person>
    <person id="62" depart="57.00">
        <walk edges="road_0_1_0 road_2_1_2"/>
    </person>
    <person id="63" depart="59.00">
        <walk edges="road_0_2_0 road_1_2_1 road_1_3_0 road_2_3_0 road_3_3_0 road_4_4_3"/>
    </person>
    <person id="64" depart="59.00">
        <walk edges="road_4_3_3 road_4_2_3"/>
    </person>
    <person id="65" depart="59.00">
        <walk edges="road_2_1_1 road_1_1_0 road_1_0_1"/>
    </person>
    <vehicle id="50" depart="60">
        <route edges="road_0_1_0 road_1_1_1 road_1_2_0 road_2_2_0 road_3_2_0 road_4_2_0"/>
    </vehicle>
    <vehicle id="51" depart="60">
        <route edges="road_0_4_0 road_1_4_0 road_2_4_0 road_3_4_0 road_4_4_0"/>
    </vehicle>
    <person id="66" depart="60.00">
        <walk edges="road_4_3_3 road_4_3_1 road_4_5_3"/>
    </person>
    <person id="67" depart="60.00">
        <walk edges="road_1_1_1 road_1_2_1 road_1_3_0 road_2_4_3"/>
    </person>
    <person id="68" depart="60.00">
        <walk edges="road_1_1_0 road_2_1_0 road_3_1_0 road_4_1_1"/>
    </person>
    <person id="69" depart="61.00">
        <walk edges="road_4_1_2 road_2_1_0 road_2_1_1 road_1_2_0 road_1_2_1"/>
    </person>
    <person id="70" depart="61.00">
        <walk edges="road_2_4_3 road_2_2_1 road_2_1_1 road_3_1_2"/>
    </person>
    <person id="71" depart="61.00">
        <walk edges="road_1_5_3 road_1_3_1 road_1_3_0 road_2_3_0 road_4_3_2"/>
    </person>
    <vehicle id="52" depart="63">
        <route edges="road_5_4_2 road_4_4_2 road_3_4_2 road_2_4_2 road_1_4_1"/>
    </vehicle>
    <person id="72" depart="63.00">
        <walk edges="road_2_3_2 road_1_3_3"/>
    </person>
    <person id="73" depart="63.00">
        <walk edges="road_3_1_2 road_3_1_0 road_4_0_1"/>
    </person>
    <vehicle id="53" depart="64">
        <route edges="road_0_4_0 road_1_4_0 road_2_4_0 road_3_4_0 road_4_4_0"/>
    </vehicle>
    <vehicle id="54" depart="65">
        <route edges="road_4_0_1 road_4_1_1 road_4_2_1 road_4_3_0"/>
    </vehicle>
    <vehicle id="55" depart="65">
        <route edges="road_5_3_2 road_4_3_2 road_3_3_1 road_3_4_1"/>
    </vehicle>
    <person id="74" depart="66.00">
        <walk edges="road_1_3_3 road_1_2_0 road_2_1_1"/>
    </person>
    <person id="75" depart="66.00">
        <walk edges="road_5_4_2 road_4_3_1 road_3_3_0 road_3_3_2"/>
    </person>
    <vehicle id="56" depart="68">
        <route edges="road_0_4_0 road_1_4_3 road_1_3_3 road_1_2_2"/>
    </vehicle>
    <vehicle id="57" depart="69">
        <route edges="road_1_0_1 road_1_1_1 road_1_2_1 road_1_3_1 road_1_4_1"/>
    </vehicle>
    <vehicle id="58" depart="69">
        <route edges="road_1_5_3 road_1_4_3 road_1_3_2"/>
    </vehicle>
    <vehicle id="59" depart="70">
        <route edges="road_0_1_0 road_1_1_0 road_2_1_0 road_3_1_1 road_3_2_1 road_3_3_1 road_3_4_1"/>
    </vehicle>
    <vehicle id="60" depart="70">
        <route edges="road_5_4_2 road_4_4_1"/>
    </vehicle>
    <person id="76" depart="71.00">
        <walk edges="road_2_4_0 road_3_3_1 road_3_2_1 road_3_1_1 road_3_1_0"/>
    </person>
    <vehicle id="61" depart="72">
        <route edges="road_0_4_0 road_1_4_0 road_2_4_3 road_2_3_3 road_2_2_3 road_2_1_3"/>
    </vehicle>
    <person id="77" depart="73.00">
        <walk edges="road_1_2_0 road_1_2_1 road_1_3_1 road_1_4_0"/>
    </person>
    <person id="78" depart="73.00">
        <walk edges="road_2_2_0 road_3_2_2"/>
    </person>
    <vehicle id="62" depart="74">
        <route edges="road_0_2_0 road_1_2_0 road_2_2_0 road_3_2_0 road_4_2_0"/>
    </vehicle>
    <vehicle id="63" depart="74">
        <route edges="road_5_2_2 road_4_2_2 road_3_2_2 road_2_2_2 road_1_2_2"/>
    </vehicle>
    <person id="79" depart="75.00">
        <walk edges="road_1_4_1 road_1_4_0"/>
    </person>
    <person id="80" depart="75.00">
        <walk edges="road_1_1_0 road_2_1_1 road_2_2_1 road_2_3_0 road_3_3_1"/>
    </person>
    <person id="81" depart="75.00">
        <walk edges="road_1_4_1 road_1_4_0 road_2_4_0 road_3_4_0 road_4_4_1"/>
    </person>
    <vehicle id="64" depart="76">
        <route edges="road_0_4_0 road_1_4_0 road_2_4_0 road_3_4_0 road_4_4_0"/>
    </vehicle>
    <vehicle id="65" depart="77">
        <route edges="road_5_4_2 road_4_4_2 road_3_4_2 road_2_4_1"/>
    </vehicle>
    <person id="82" depart="77.00">
        <walk edges="road_4_3_1 road_4_2_1 road_3_2_0 road_3_1_1 road_2_1_0 road_1_1_0"/>
    </person>
    <person id="83" depart="77.00">
        <walk edges="road_1_4_2 road_1_4_0 road_2_4_0 road_3_4_0"/>
    </person>
    <vehicle id="66" depart="78">
        <route edges="road_4_0_1 road_4_1_0"/>
    </vehicle>
    <vehicle id="67" depart="78">
        <route edges="road_5_3_2 road_4_3_2 road_3_3_2 road_2_3_2 road_1_3_1 road_1_4_0 road_2_4_0 road_3_4_3"/>
    </vehicle>
    <person id="84" depart="78.00">
        <walk edges="road_1_4_0 road_1_3_1 road_1_2_1"/>
    </person>
    <person id="85" depart="78.00">
        <walk edges="road_4_4_3 road_4_2_1 road_3_2_0"/>
    </person>
    <person id="86" depart="78.00">
        <walk edges="road_2_4_2 road_2_3_1 road_2_3_0 road_3_2_1 road_3_2_0 road_4_1_1 road_4_1_3"/>
    </person>
    <person id="87" depart="79.00">
        <walk edges="road_4_2_1 road_3_3_0 road_2_3_0 road_1_3_0 road_1_3_2"/>
    </person>
    <person id="88" depart="79.00">
        <walk edges="road_1_1_2 road_1_1_1 road_1_2_0 road_2_3_3"/>
    </person>
    <person id="89" depart="79.00">
        <walk edges="road_2_3_2 road_2_3_1 road_2_4_2"/>
    </person>
    <person id="90" depart="79.00">
        <walk edges="road_4_0_1 road_4_1_1 road_4_2_1 road_4_3_1 road_3_4_0"/>
    </person>
    <person id="91" depart="79.00">
        <walk edges="road_5_3_2 road_4_2_1 road_3_2_0 road_2_2_0 road_2_1_1 road_1_1_0 road_1_1_2"/>
    </person>
    <person id="92" depart="79.00">
        <walk edges="road_2_3_1 road_2_2_1 road_2_2_0"/>
    </person>
    <vehicle id="68" depart="80">
        <route edges="road_0_1_0 road_1_1_0 road_2_1_3"/>
    </vehicle>
    <vehicle id="69" depart="80">
        <route edges="road_0_4_0 road_1_4_1"/>
    </vehicle>
    <person id="93" depart="80.00">
        <walk edges="road_4_3_1 road_3_4_0 road_2_4_0 road_1_4_0 road_1_4_2"/>
    </person>
    <person id="94" depart="81.00">
        <walk edges="road_1_3_2 road_1_3_1 road_1_4_0 road_2_4_0"/>
    </person>
    <person id="95" depart="82.00">
        <walk edges="road_2_3_2 road_2_2_1 road_2_1_1 road_2_0_1"/>
    </person>
    <person id="96" depart="83.00">
        <walk edges="road_1_4_2 road_1_4_0 road_2_4_0 road_4_4_2"/>
    </person>
    <vehicle id="70" depart="84">
        <route edges="road_5_4_2 road_4_4_2 road_3_4_1"/>
    </vehicle>
    <vehicle id="71" depart="84">
        <route edges="road_0_4_0 road_1_4_0 road_2_4_3 road_2_3_2 road_1_3_2"/>
    </vehicle>
    <person id="97" depart="85.00">
        <walk edges="road_2_4_0 road_3_4_0 road_4_3_1"/>
    </person>
    <person id="98" depart="87.00">
        <walk edges="road_3_1_3 road_2_1_0 road_1_1_0 road_1_0_1"/>
    </person>
    <vehicle id="72" depart="88">
        <route edges="road_0_4_0 road_1_4_0 road_2_4_3 road_2_3_0 road_3_3_1 road_3_4_0 road_4_4_0"/>
    </vehicle>
    <person id="99" depart="88.00">
        <walk edges="road_5_4_2 road_4_3_1 road_4_2_1 road_4_2_3"/>
    </person>
    <person id="100" depart="88.00">
        <walk edges="road_5_2_2 road_4_2_1 road_4_4_3"/>
    </person>
    <vehicle id="73" depart="90">
        <route edges="road_0_1_0 road_1_1_0 road_2_1_3"/>
    </vehicle>
    <person id="101" depart="90.00">
        <walk edges="road_4_3_0 road_3_3_0 road_2_3_0 road_1_3_0"/>
    </person>
    <vehicle id="74" depart="91">
        <route edges="road_4_0_1 road_4_1_1 road_4_2_1 road_4_3_0"/>
    </vehicle>
    <vehicle id="75" depart="91">
        <route edges="road_5_4_2 road_4_4_1"/>
    </vehicle>
    <vehicle id="76" depart="91">
        <route edges="road_5_3_2 road_4_3_2 road_3_3_1 road_3_4_1"/>
    </vehicle>
    <person id="102" depart="91.00">
        <walk edges="road_2_4_3 road_1_4_0"/>
    </person>
    <vehicle id="77" depart="92">
        <route edges="road_1_0_1 road_1_1_1 road_1_2_0 road_2_2_0 road_3_2_0 road_4_2_0"/>
    </vehicle>
    <vehicle id="78" depart="92">
        <route edges="road_1_5_3 road_1_4_3 road_1_3_2"/>
    </vehicle>
    <vehicle id="79" depart="92">
        <route edges="road_0_4_0 road_1_4_3 road_1_3_3 road_1_2_3 road_1_1_3"/>
    </vehicle>
    <person id="103" depart="92.00">
        <walk edges="road_2_3_1 road_2_2_1 road_1_2_0 road_1_1_1 road_1_0_1"/>
    </person>
    <person id="104" depart="92.00">
        <walk edges="road_2_2_3 road_2_2_0 road_3_2_0 road_4_2_1 road_5_3_2"/>
    </person>
    <person id="105" depart="93.00">
        <walk edges="road_1_5_3 road_1_3_1 road_1_2_1 road_1_2_0 road_2_1_1 road_2_1_0 road_3_1_0 road_4_1_3"/>
    </person>
    <person id="106" depart="93.00">
        <walk edges="road_2_4_1 road_2_3_1 road_2_3_2"/>
    </person>
    <vehicle id="80" depart="96">
        <route edges="road_0_4_0 road_1_4_3 road_1_3_3 road_1_2_3 road_1_1_2"/>
    </vehicle>
    <person id="107" depart="97.00">
        <walk edges="road_5_1_2 road_4_1_1 road_4_2_1 road_4_3_1 road_5_4_2"/>
    </person>
    <vehicle id="81" depart="98">
        <route edges="road_5_4_2 road_4_4_2 road_3_4_3 road_3_3_3 road_3_2_2 road_2_2_3 road_2_1_3"/>
    </vehicle>
    <person id="108" depart="99.00">
        <walk edges="road_3_1_3 road_3_1_1 road_3_2_1 road_3_3_1 road_3_5_3"/>
    </person>
    <person id="109" depart="99.00">
        <walk edges="road_1_2_3 road_1_1_0 road_2_1_0"/>
    </person>
    <vehicle id="82" depart="100">
        <route edges="road_0_1_0 road_1_1_0 road_2_1_0 road_3_1_1 road_3_2_0 road_4_2_0"/>
    </vehicle>
    <vehicle id="83" depart="100">
        <route edges="road_0_4_0 road_1_4_0 road_2_4_0 road_3_4_1"/>
    </vehicle>
    <person id="110" depart="100.00">
        <walk edges="road_5_2_2 road_3_2_0 road_3_2_1"/>
    </person>
    <person id="111" depart="100.00">
        <walk edges="road_3_1_2 road_3_1_0 road_4_1_0"/>
    </person>
    <person id="112" depart="103.00">
        <walk edges="road_1_0_1 road_1_1_1 road_1_2_0 road_2_2_0 road_3_2_1"/>
    </person>
    <vehicle id="84" depart="104">
        <route edges="road_4_0_1 road_4_1_0"/>
    </vehicle>
    <vehicle id="85" depart="104">
        <route edges="road_0_4_0 road_1_4_0 road_2_4_0 road_3_4_0 road_4_4_0"/>
    </vehicle>
    <vehicle id="86" depart="104">
        <route edges="road_5_3_2 road_4_3_2 road_3_3_1 road_3_4_0 road_4_4_3"/>
    </vehicle>
    <vehicle id="87" depart="105">
        <route edges="road_5_4_2 road_4_4_2 road_3_4_2 road_2_4_1"/>
    </vehicle>
    <person id="113" depart="105.00">
        <walk edges="road_3_0_1 road_3_1_1 road_3_2_1 road_3_3_0 road_4_3_1"/>
    </person>
    <person id="114" depart="105.00">
        <walk edges="road_1_2_3 road_1_1_0 road_2_1_0 road_3_1_0 road_5_1_2"/>
    </person>
    <person id="115" depart="107.00">
        <walk edges="road_1_1_1 road_1_2_1 road_1_3_1"/>
    </person>
    <vehicle id="88" depart="108">
        <route edges="road_0_4_0 road_1_4_0 road_2_4_0 road_3_4_0 road_4_4_3 road_4_3_3 road_4_2_3 road_4_1_2 road_3_1_1 road_3_2_1 road_3_3_1 road_3_4_2 road_2_4_2 road_1_4_1"/>
    </vehicle>
    <person id="116" depart="108.00">
        <walk edges="road_3_2_2 road_3_2_1 road_3_3_1 road_3_4_1"/>
    </person>
    <person id="117" depart="108.00">
        <walk edges="road_1_4_1 road_1_3_1 road_1_2_1 road_1_2_0"/>
    </person>
    <person id="118" depart="109.00">
        <walk edges="road_4_4_0 road_3_4_0 road_2_4_0 road_1_4_0 road_1_4_2"/>
    </person>
    <person id="119" depart="109.00">
        <walk edges="road_3_2_2 road_3_2_1 road_3_3_0"/>
    </person>
    <vehicle id="89" depart="110">
        <route edges="road_0_1_0 road_1_1_0 road_2_1_3"/>
    </vehicle>
    <vehicle id="90" depart="111">
        <route edges="road_0_2_0 road_1_2_1 road_1_3_1 road_1_4_0 road_2_4_0 road_3_4_0 road_4_4_0"/>
    </vehicle>
    <vehicle id="91" depart="111">
        <route edges="road_5_2_2 road_4_2_2 road_3_2_2 road_2_2_1 road_2_3_1 road_2_4_2 road_1_4_2"/>
    </vehicle>
    <person id="120" depart="111.00">
        <walk edges="road_2_3_2 road_2_3_0 road_3_2_1"/>
    </person>
    <person id="121" depart="111.00">
        <walk edges="road_3_1_0 road_4_1_1 road_4_2_1 road_4_4_3"/>
    </person>
    <person id="122" depart="111.00">
        <walk edges="road_1_3_3 road_1_3_0 road_2_3_0 road_3_3_1 road_3_5_3"/>
    </person>
    <vehicle id="92" depart="112">
        <route edges="road_5_4_2 road_4_4_2 road_3_4_2 road_2_4_2 road_1_4_2"/>
    </vehicle>
    <vehicle id="93" depart="112">
        <route edges="road_0_4_0 road_1_4_1"/>
    </vehicle>
    <vehicle id="94" depart="115">
        <route edges="road_1_0_1 road_1_1_0 road_2_1_0 road_3_1_3"/>
    </vehicle>
    <vehicle id="95" depart="115">
        <route edges="road_1_5_3 road_1_4_3 road_1_3_2"/>
    </vehicle>
    <person id="123" depart="115.00">
        <walk edges="road_1_4_2 road_1_3_1 road_1_3_0 road_2_3_0"/>
    </person>
    <person id="124" depart="115.00">
        <walk edges="road_3_4_0 road_3_3_1 road_3_2_1 road_3_1_1 road_2_1_0"/>
    </person>
    <vehicle id="96" depart="116">
        <route edges="road_0_4_0 road_1_4_0 road_2_4_0 road_3_4_1"/>
    </vehicle>
    <vehicle id="97" depart="117">
        <route edges="road_4_0_1 road_4_1_2 road_3_1_3"/>
    </vehicle>
    <vehicle id="98" depart="117">
        <route edges="road_5_3_2 road_4_3_1 road_4_4_0"/>
    </vehicle>
    <vehicle id="99" depart="119">
        <route edges="road_5_4_2 road_4_4_2 road_3_4_2 road_2_4_1"/>
    </vehicle>
    <person id="125" depart="119.00">
        <walk edges="road_2_1_2 road_2_1_0 road_3_1_0 road_4_1_1"/>
    </person>
    <vehicle id="100" depart="120">
        <route edges="road_0_1_0 road_1_1_0 road_2_1_0 road_3_1_0 road_4_1_3"/>
    </vehicle>
    <vehicle id="101" depart="120">
        <route edges="road_0_4_0 road_1_4_0 road_2_4_0 road_3_4_3 road_3_3_3 road_3_2_3 road_3_1_2 road_2_1_3"/>
    </vehicle>
    <person id="126" depart="120.00">
        <walk edges="road_1_1_0 road_2_1_1 road_2_2_1 road_2_3_1 road_2_4_1"/>
    </person>
    <person id="127" depart="120.00">
        <walk edges="road_5_4_2"/>
    </person>
    <person id="128" depart="120.00">
        <walk edges="road_1_1_0 road_1_1_1 road_1_2_1 road_1_3_1 road_1_4_0"/>
    </person>
    <person id="129" depart="121.00">
        <walk edges="road_1_5_3 road_1_4_0 road_2_4_0 road_3_4_0 road_4_4_3"/>
    </person>
    <person id="130" depart="121.00">
        <walk edges="road_4_3_3"/>
    </person>
    <person id="131" depart="123.00">
        <walk edges="road_2_2_2 road_1_2_3"/>
    </person>
    <person id="132" depart="123.00">
        <walk edges="road_4_2_3 road_4_2_1 road_3_3_0 road_3_4_3"/>
    </person>
    <vehicle id="102" depart="124">
        <route edges="road_0_4_0 road_1_4_3 road_1_3_3 road_1_2_3 road_1_1_0 road_2_1_3"/>
    </vehicle>
    <person id="133" depart="125.00">
        <walk edges="road_3_2_3 road_3_2_1 road_3_3_0 road_5_3_2"/>
    </person>
    <person id="134" depart="125.00">
        <walk edges="road_3_3_3 road_3_1_1 road_2_1_0 road_1_1_0 road_0_1_0"/>
    </person>
    <vehicle id="103" depart="126">
        <route edges="road_5_4_2 road_4_4_2 road_3_4_2 road_2_4_2 road_1_4_2"/>
    </vehicle>