<?xml version="1.0" encoding="UTF-8"?>

<!-- generated on 05/12/21 09:18:57 by Eclipse SUMO netedit Version 1.7.0
<configuration xmlns:xsi="http://www.w3.org/2001/XMLSchema-instance" xsi:noNamespaceSchemaLocation="http://sumo.dlr.de/xsd/netconvertConfiguration.xsd">

    <input>
        <sumo-net-file value="E:\hangzhou\sumo4444.net.xml"/>
    </input>

    <output>
        <output-file value="E:\hangzhou\sumo4444.net.xml"/>
    </output>

    <processing>
        <geometry.min-radius.fix.railways value="false"/>
        <geometry.max-grade.fix value="false"/>
        <offset.disable-normalization value="true"/>
        <lefthand value="false"/>
    </processing>

    <junctions>
        <no-internal-links value="false"/>
        <no-turnarounds value="true"/>
        <junctions.corner-detail value="5"/>
        <junctions.limit-turn-speed value="5.5"/>
        <rectangular-lane-cut value="false"/>
    </junctions>

    <pedestrian>
        <walkingareas value="false"/>
    </pedestrian>

    <report>
        <aggregate-warnings value="5"/>
    </report>

</configuration>
-->

<net version="1.6" junctionCornerDetail="5" limitTurnSpeed="5.50" xmlns:xsi="http://www.w3.org/2001/XMLSchema-instance" xsi:noNamespaceSchemaLocation="http://sumo.dlr.de/xsd/net_file.xsd">

    <location netOffset="0.00,0.00" convBoundary="-800.00,-600.00,3200.00,2400.00" origBoundary="-10000000000.00,-10000000000.00,10000000000.00,10000000000.00" projParameter="!"/>

    <edge id=":intersection_0_1_w0" function="walkingarea">
        <lane id=":intersection_0_1_w0_0" index="0" allow="pedestrian" speed="1.00" length="14.80" width="2.00" shape="-800.00,-6.40 -800.00,-8.40 -800.00,8.40 -800.00,6.40"/>
    </edge>
    <edge id=":intersection_0_2_w0" function="walkingarea">
        <lane id=":intersection_0_2_w0_0" index="0" allow="pedestrian" speed="1.00" length="14.80" width="2.00" shape="-800.00,593.60 -800.00,591.60 -800.00,608.40 -800.00,606.40"/>
    </edge>
    <edge id=":intersection_0_3_w0" function="walkingarea">
        <lane id=":intersection_0_3_w0_0" index="0" allow="pedestrian" speed="1.00" length="14.80" width="2.00" shape="-800.00,1193.60 -800.00,1191.60 -800.00,1208.40 -800.00,1206.40"/>
    </edge>
    <edge id=":intersection_0_4_w0" function="walkingarea">
        <lane id=":intersection_0_4_w0_0" index="0" allow="pedestrian" speed="1.00" length="14.80" width="2.00" shape="-800.00,1793.60 -800.00,1791.60 -800.00,1808.40 -800.00,1806.40"/>
    </edge>
    <edge id=":intersection_1_0_w0" function="walkingarea">
        <lane id=":intersection_1_0_w0_0" index="0" allow="pedestrian" speed="1.00" length="14.80" width="2.00" shape="6.40,-600.00 8.40,-600.00 -8.40,-600.00 -6.40,-600.00"/>
    </edge>
    <edge id=":intersection_1_1_0" function="internal">
        <lane id=":intersection_1_1_0_0" index="0" disallow="pedestrian" speed="6.51" length="4.75" shape="-4.80,10.40 -5.15,7.95 -6.20,6.20 -6.40,6.08"/>
    </edge>
    <edge id=":intersection_1_1_1" function="internal">
        <lane id=":intersection_1_1_1_0" index="0" disallow="pedestrian" speed="13.89" length="20.80" shape="-4.80,10.40 -4.80,-10.40"/>
    </edge>
    <edge id=":intersection_1_1_2" function="internal">
        <lane id=":intersection_1_1_2_0" index="0" disallow="pedestrian" speed="9.26" length="11.78" shape="-1.60,10.40 -0.85,5.15 1.40,1.40 3.20,0.32"/>
    </edge>
    <edge id=":intersection_1_1_12" function="internal">
        <lane id=":intersection_1_1_12_0" index="0" disallow="pedestrian" speed="6.51" length="4.28" shape="-6.40,6.08 -7.95,5.15 -10.40,4.80"/>
    </edge>
    <edge id=":intersection_1_1_13" function="internal">
        <lane id=":intersection_1_1_13_0" index="0" disallow="pedestrian" speed="9.26" length="7.58" shape="3.20,0.32 5.15,-0.85 10.40,-1.60"/>
    </edge>
    <edge id=":intersection_1_1_3" function="internal">
        <lane id=":intersection_1_1_3_0" index="0" disallow="pedestrian" speed="6.51" length="4.75" shape="10.40,4.80 7.95,5.15 6.20,6.20 6.08,6.40"/>
    </edge>
    <edge id=":intersection_1_1_4" function="internal">
        <lane id=":intersection_1_1_4_0" index="0" disallow="pedestrian" speed="13.89" length="20.80" shape="10.40,4.80 -10.40,4.80"/>
    </edge>
    <edge id=":intersection_1_1_5" function="internal">
        <lane id=":intersection_1_1_5_0" index="0" disallow="pedestrian" speed="9.26" length="11.78" shape="10.40,1.60 5.15,0.85 1.40,-1.40 0.32,-3.20"/>
    </edge>
    <edge id=":intersection_1_1_14" function="internal">
        <lane id=":intersection_1_1_14_0" index="0" disallow="pedestrian" speed="6.51" length="4.28" shape="6.08,6.40 5.15,7.95 4.80,10.40"/>
    </edge>
    <edge id=":intersection_1_1_15" function="internal">
        <lane id=":intersection_1_1_15_0" index="0" disallow="pedestrian" speed="9.26" length="7.58" shape="0.32,-3.20 -0.85,-5.15 -1.60,-10.40"/>
    </edge>
    <edge id=":intersection_1_1_6" function="internal">
        <lane id=":intersection_1_1_6_0" index="0" disallow="pedestrian" speed="6.51" length="4.75" shape="4.80,-10.40 5.15,-7.95 6.20,-6.20 6.40,-6.08"/>
    </edge>
    <edge id=":intersection_1_1_7" function="internal">
        <lane id=":intersection_1_1_7_0" index="0" disallow="pedestrian" speed="13.89" length="20.80" shape="4.80,-10.40 4.80,10.40"/>
    </edge>
    <edge id=":intersection_1_1_8" function="internal">
        <lane id=":intersection_1_1_8_0" index="0" disallow="pedestrian" speed="9.26" length="11.78" shape="1.60,-10.40 0.85,-5.15 -1.40,-1.40 -3.20,-0.32"/>
    </edge>
    <edge id=":intersection_1_1_16" function="internal">
        <lane id=":intersection_1_1_16_0" index="0" disallow="pedestrian" speed="6.51" length="4.28" shape="6.40,-6.08 7.95,-5.15 10.40,-4.80"/>
    </edge>
    <edge id=":intersection_1_1_17" function="internal">
        <lane id=":intersection_1_1_17_0" index="0" disallow="pedestrian" speed="9.26" length="7.58" shape="-3.20,-0.32 -5.15,0.85 -10.40,1.60"/>
    </edge>
    <edge id=":intersection_1_1_9" function="internal">
        <lane id=":intersection_1_1_9_0" index="0" disallow="pedestrian" speed="6.51" length="4.75" shape="-10.40,-4.80 -7.95,-5.15 -6.20,-6.20 -6.08,-6.40"/>
    </edge>
    <edge id=":intersection_1_1_10" function="internal">
        <lane id=":intersection_1_1_10_0" index="0" disallow="pedestrian" speed="13.89" length="20.80" shape="-10.40,-4.80 10.40,-4.80"/>
    </edge>
    <edge id=":intersection_1_1_11" function="internal">
        <lane id=":intersection_1_1_11_0" index="0" disallow="pedestrian" speed="9.26" length="11.78" shape="-10.40,-1.60 -5.15,-0.85 -1.40,1.40 -0.32,3.20"/>
    </edge>
    <edge id=":intersection_1_1_18" function="internal">
        <lane id=":intersection_1_1_18_0" index="0" disallow="pedestrian" speed="6.51" length="4.28" shape="-6.08,-6.40 -5.15,-7.95 -4.80,-10.40"/>
    </edge>
    <edge id=":intersection_1_1_19" function="internal">
        <lane id=":intersection_1_1_19_0" index="0" disallow="pedestrian" speed="9.26" length="7.58" shape="-0.32,3.20 0.85,5.15 1.60,10.40"/>
    </edge>
    <edge id=":intersection_1_1_c0" function="crossing" crossingEdges="road_1_1_1 road_1_2_3">
        <lane id=":intersection_1_1_c0_0" index="0" allow="pedestrian" speed="1.00" length="12.80" width="4.00" shape="6.40,8.40 -6.40,8.40"/>
    </edge>
    <edge id=":intersection_1_1_c1" function="crossing" crossingEdges="road_1_1_0 road_2_1_2">
        <lane id=":intersection_1_1_c1_0" index="0" allow="pedestrian" speed="1.00" length="12.80" width="4.00" shape="8.40,-6.40 8.40,6.40"/>
    </edge>
    <edge id=":intersection_1_1_c2" function="crossing" crossingEdges="road_1_1_3 road_1_0_1">
        <lane id=":intersection_1_1_c2_0" index="0" allow="pedestrian" speed="1.00" length="12.80" width="4.00" shape="-6.40,-8.40 6.40,-8.40"/>
    </edge>
    <edge id=":intersection_1_1_c3" function="crossing" crossingEdges="road_1_1_2 road_0_1_0">
        <lane id=":intersection_1_1_c3_0" index="0" allow="pedestrian" speed="1.00" length="12.80" width="4.00" shape="-8.40,6.40 -8.40,-6.40"/>
    </edge>
    <edge id=":intersection_1_1_w0" function="walkingarea">
        <lane id=":intersection_1_1_w0_0" index="0" allow="pedestrian" speed="1.00" length="3.30" width="4.00" shape="-10.40,6.40 -10.40,8.40 -8.40,10.40 -6.40,10.40 -6.51,9.18 -6.84,8.18 -7.40,7.40 -8.18,6.84 -9.18,6.51"/>
    </edge>
    <edge id=":intersection_1_1_w1" function="walkingarea">
        <lane id=":intersection_1_1_w1_0" index="0" allow="pedestrian" speed="1.00" length="3.30" width="4.00" shape="6.40,10.40 8.40,10.40 10.40,8.40 10.40,6.40 9.18,6.51 8.18,6.84 7.40,7.40 6.84,8.18 6.51,9.18"/>
    </edge>
    <edge id=":intersection_1_1_w2" function="walkingarea">
        <lane id=":intersection_1_1_w2_0" index="0" allow="pedestrian" speed="1.00" length="3.30" width="4.00" shape="10.40,-6.40 10.40,-8.40 8.40,-10.40 6.40,-10.40 6.51,-9.18 6.84,-8.18 7.40,-7.40 8.18,-6.84 9.18,-6.51"/>
    </edge>
    <edge id=":intersection_1_1_w3" function="walkingarea">
        <lane id=":intersection_1_1_w3_0" index="0" allow="pedestrian" speed="1.00" length="3.30" width="4.00" shape="-6.40,-10.40 -8.40,-10.40 -10.40,-8.40 -10.40,-6.40 -9.18,-6.51 -8.18,-6.84 -7.40,-7.40 -6.84,-8.18 -6.51,-9.18"/>
    </edge>
    <edge id=":intersection_1_2_0" function="internal">
        <lane id=":intersection_1_2_0_0" index="0" disallow="pedestrian" speed="6.51" length="4.75" shape="-4.80,610.40 -5.15,607.95 -6.20,606.20 -6.40,606.08"/>
    </edge>
    <edge id=":intersection_1_2_1" function="internal">
        <lane id=":intersection_1_2_1_0" index="0" disallow="pedestrian" speed="13.89" length="20.80" shape="-4.80,610.40 -4.80,589.60"/>
    </edge>
    <edge id=":intersection_1_2_2" function="internal">
        <lane id=":intersection_1_2_2_0" index="0" disallow="pedestrian" speed="9.26" length="11.78" shape="-1.60,610.40 -0.85,605.15 1.40,601.40 3.20,600.32"/>
    </edge>
    <edge id=":intersection_1_2_12" function="internal">
        <lane id=":intersection_1_2_12_0" index="0" disallow="pedestrian" speed="6.51" length="4.28" shape="-6.40,606.08 -7.95,605.15 -10.40,604.80"/>
    </edge>
    <edge id=":intersection_1_2_13" function="internal">
        <lane id=":intersection_1_2_13_0" index="0" disallow="pedestrian" speed="9.26" length="7.58" shape="3.20,600.32 5.15,599.15 10.40,598.40"/>
    </edge>
    <edge id=":intersection_1_2_3" function="internal">
        <lane id=":intersection_1_2_3_0" index="0" disallow="pedestrian" speed="6.51" length="4.75" shape="10.40,604.80 7.95,605.15 6.20,606.20 6.08,606.40"/>
    </edge>
    <edge id=":intersection_1_2_4" function="internal">
        <lane id=":intersection_1_2_4_0" index="0" disallow="pedestrian" speed="13.89" length="20.80" shape="10.40,604.80 -10.40,604.80"/>
    </edge>
    <edge id=":intersection_1_2_5" function="internal">
        <lane id=":intersection_1_2_5_0" index="0" disallow="pedestrian" speed="9.26" length="11.78" shape="10.40,601.60 5.15,600.85 1.40,598.60 0.32,596.80"/>
    </edge>
    <edge id=":intersection_1_2_14" function="internal">
        <lane id=":intersection_1_2_14_0" index="0" disallow="pedestrian" speed="6.51" length="4.28" shape="6.08,606.40 5.15,607.95 4.80,610.40"/>
    </edge>
    <edge id=":intersection_1_2_15" function="internal">
        <lane id=":intersection_1_2_15_0" index="0" disallow="pedestrian" speed="9.26" length="7.58" shape="0.32,596.80 -0.85,594.85 -1.60,589.60"/>
    </edge>
    <edge id=":intersection_1_2_6" function="internal">
        <lane id=":intersection_1_2_6_0" index="0" disallow="pedestrian" speed="6.51" length="4.75" shape="4.80,589.60 5.15,592.05 6.20,593.80 6.40,593.92"/>
    </edge>
    <edge id=":intersection_1_2_7" function="internal">
        <lane id=":intersection_1_2_7_0" index="0" disallow="pedestrian" speed="13.89" length="20.80" shape="4.80,589.60 4.80,610.40"/>
    </edge>
    <edge id=":intersection_1_2_8" function="internal">
        <lane id=":intersection_1_2_8_0" index="0" disallow="pedestrian" speed="9.26" length="11.78" shape="1.60,589.60 0.85,594.85 -1.40,598.60 -3.20,599.68"/>
    </edge>
    <edge id=":intersection_1_2_16" function="internal">
        <lane id=":intersection_1_2_16_0" index="0" disallow="pedestrian" speed="6.51" length="4.28" shape="6.40,593.92 7.95,594.85 10.40,595.20"/>
    </edge>
    <edge id=":intersection_1_2_17" function="internal">
        <lane id=":intersection_1_2_17_0" index="0" disallow="pedestrian" speed="9.26" length="7.58" shape="-3.20,599.68 -5.15,600.85 -10.40,601.60"/>
    </edge>
    <edge id=":intersection_1_2_9" function="internal">
        <lane id=":intersection_1_2_9_0" index="0" disallow="pedestrian" speed="6.51" length="4.75" shape="-10.40,595.20 -7.95,594.85 -6.20,593.80 -6.08,593.60"/>
    </edge>
    <edge id=":intersection_1_2_10" function="internal">
        <lane id=":intersection_1_2_10_0" index="0" disallow="pedestrian" speed="13.89" length="20.80" shape="-10.40,595.20 10.40,595.20"/>
    </edge>
    <edge id=":intersection_1_2_11" function="internal">
        <lane id=":intersection_1_2_11_0" index="0" disallow="pedestrian" speed="9.26" length="11.78" shape="-10.40,598.40 -5.15,599.15 -1.40,601.40 -0.32,603.20"/>
    </edge>
    <edge id=":intersection_1_2_18" function="internal">
        <lane id=":intersection_1_2_18_0" index="0" disallow="pedestrian" speed="6.51" length="4.28" shape="-6.08,593.60 -5.15,592.05 -4.80,589.60"/>
    </edge>
    <edge id=":intersection_1_2_19" function="internal">
        <lane id=":intersection_1_2_19_0" index="0" disallow="pedestrian" speed="9.26" length="7.58" shape="-0.32,603.20 0.85,605.15 1.60,610.40"/>
    </edge>
    <edge id=":intersection_1_2_c0" function="crossing" crossingEdges="road_1_2_1 road_1_3_3">
        <lane id=":intersection_1_2_c0_0" index="0" allow="pedestrian" speed="1.00" length="12.80" width="4.00" shape="6.40,608.40 -6.40,608.40"/>
    </edge>
    <edge id=":intersection_1_2_c1" function="crossing" crossingEdges="road_1_2_0 road_2_2_2">
        <lane id=":intersection_1_2_c1_0" index="0" allow="pedestrian" speed="1.00" length="12.80" width="4.00" shape="8.40,593.60 8.40,606.40"/>
    </edge>
    <edge id=":intersection_1_2_c2" function="crossing" crossingEdges="road_1_2_3 road_1_1_1">
        <lane id=":intersection_1_2_c2_0" index="0" allow="pedestrian" speed="1.00" length="12.80" width="4.00" shape="-6.40,591.60 6.40,591.60"/>
    </edge>
    <edge id=":intersection_1_2_c3" function="crossing" crossingEdges="road_1_2_2 road_0_2_0">
        <lane id=":intersection_1_2_c3_0" index="0" allow="pedestrian" speed="1.00" length="12.80" width="4.00" shape="-8.40,606.40 -8.40,593.60"/>
    </edge>
    <edge id=":intersection_1_2_w0" function="walkingarea">
        <lane id=":intersection_1_2_w0_0" index="0" allow="pedestrian" speed="1.00" length="3.30" width="4.00" shape="-10.40,606.40 -10.40,608.40 -8.40,610.40 -6.40,610.40 -6.51,609.18 -6.84,608.18 -7.40,607.40 -8.18,606.84 -9.18,606.51"/>
    </edge>
    <edge id=":intersection_1_2_w1" function="walkingarea">
        <lane id=":intersection_1_2_w1_0" index="0" allow="pedestrian" speed="1.00" length="3.30" width="4.00" shape="6.40,610.40 8.40,610.40 10.40,608.40 10.40,606.40 9.18,606.51 8.18,606.84 7.40,607.40 6.84,608.18 6.51,609.18"/>
    </edge>
    <edge id=":intersection_1_2_w2" function="walkingarea">
        <lane id=":intersection_1_2_w2_0" index="0" allow="pedestrian" speed="1.00" length="3.30" width="4.00" shape="10.40,593.60 10.40,591.60 8.40,589.60 6.40,589.60 6.51,590.82 6.84,591.82 7.40,592.60 8.18,593.16 9.18,593.49"/>
    </edge>
    <edge id=":intersection_1_2_w3" function="walkingarea">
        <lane id=":intersection_1_2_w3_0" index="0" allow="pedestrian" speed="1.00" length="3.30" width="4.00" shape="-6.40,589.60 -8.40,589.60 -10.40,591.60 -10.40,593.60 -9.18,593.49 -8.18,593.16 -7.40,592.60 -6.84,591.82 -6.51,590.82"/>
    </edge>
    <edge id=":intersection_1_3_0" function="internal">
        <lane id=":intersection_1_3_0_0" index="0" disallow="pedestrian" speed="6.51" length="4.75" shape="-4.80,1210.40 -5.15,1207.95 -6.20,1206.20 -6.40,1206.08"/>
    </edge>
    <edge id=":intersection_1_3_1" function="internal">
        <lane id=":intersection_1_3_1_0" index="0" disallow="pedestrian" speed="13.89" length="20.80" shape="-4.80,1210.40 -4.80,1189.60"/>
    </edge>
    <edge id=":intersection_1_3_2" function="internal">
        <lane id=":intersection_1_3_2_0" index="0" disallow="pedestrian" speed="9.26" length="11.78" shape="-1.60,1210.40 -0.85,1205.15 1.40,1201.40 3.20,1200.32"/>
    </edge>
    <edge id=":intersection_1_3_12" function="internal">
        <lane id=":intersection_1_3_12_0" index="0" disallow="pedestrian" speed="6.51" length="4.28" shape="-6.40,1206.08 -7.95,1205.15 -10.40,1204.80"/>
    </edge>
    <edge id=":intersection_1_3_13" function="internal">
        <lane id=":intersection_1_3_13_0" index="0" disallow="pedestrian" speed="9.26" length="7.58" shape="3.20,1200.32 5.15,1199.15 10.40,1198.40"/>
    </edge>
    <edge id=":intersection_1_3_3" function="internal">
        <lane id=":intersection_1_3_3_0" index="0" disallow="pedestrian" speed="6.51" length="4.75" shape="10.40,1204.80 7.95,1205.15 6.20,1206.20 6.08,1206.40"/>
    </edge>
    <edge id=":intersection_1_3_4" function="internal">
        <lane id=":intersection_1_3_4_0" index="0" disallow="pedestrian" speed="13.89" length="20.80" shape="10.40,1204.80 -10.40,1204.80"/>
    </edge>
    <edge id=":intersection_1_3_5" function="internal">
        <lane id=":intersection_1_3_5_0" index="0" disallow="pedestrian" speed="9.26" length="11.78" shape="10.40,1201.60 5.15,1200.85 1.40,1198.60 0.32,1196.80"/>
    </edge>
    <edge id=":intersection_1_3_14" function="internal">
        <lane id=":intersection_1_3_14_0" index="0" disallow="pedestrian" speed="6.51" length="4.28" shape="6.08,1206.40 5.15,1207.95 4.80,1210.40"/>
    </edge>
    <edge id=":intersection_1_3_15" function="internal">
        <lane id=":intersection_1_3_15_0" index="0" disallow="pedestrian" speed="9.26" length="7.58" shape="0.32,1196.80 -0.85,1194.85 -1.60,1189.60"/>
    </edge>
    <edge id=":intersection_1_3_6" function="internal">
        <lane id=":intersection_1_3_6_0" index="0" disallow="pedestrian" speed="6.51" length="4.75" shape="4.80,1189.60 5.15,1192.05 6.20,1193.80 6.40,1193.92"/>
    </edge>
    <edge id=":intersection_1_3_7" function="internal">
        <lane id=":intersection_1_3_7_0" index="0" disallow="pedestrian" speed="13.89" length="20.80" shape="4.80,1189.60 4.80,1210.40"/>
    </edge>
    <edge id=":intersection_1_3_8" function="internal">
        <lane id=":intersection_1_3_8_0" index="0" disallow="pedestrian" speed="9.26" length="11.78" shape="1.60,1189.60 0.85,1194.85 -1.40,1198.60 -3.20,1199.68"/>
    </edge>
    <edge id=":intersection_1_3_16" function="internal">
        <lane id=":intersection_1_3_16_0" index="0" disallow="pedestrian" speed="6.51" length="4.28" shape="6.40,1193.92 7.95,1194.85 10.40,1195.20"/>
    </edge>
    <edge id=":intersection_1_3_17" function="internal">
        <lane id=":intersection_1_3_17_0" index="0" disallow="pedestrian" speed="9.26" length="7.58" shape="-3.20,1199.68 -5.15,1200.85 -10.40,1201.60"/>
    </edge>
    <edge id=":intersection_1_3_9" function="internal">
        <lane id=":intersection_1_3_9_0" index="0" disallow="pedestrian" speed="6.51" length="4.75" shape="-10.40,1195.20 -7.95,1194.85 -6.20,1193.80 -6.08,1193.60"/>
    </edge>
    <edge id=":intersection_1_3_10" function="internal">
        <lane id=":intersection_1_3_10_0" index="0" disallow="pedestrian" speed="13.89" length="20.80" shape="-10.40,1195.20 10.40,1195.20"/>
    </edge>
    <edge id=":intersection_1_3_11" function="internal">
        <lane id=":intersection_1_3_11_0" index="0" disallow="pedestrian" speed="9.26" length="11.78" shape="-10.40,1198.40 -5.15,1199.15 -1.40,1201.40 -0.32,1203.20"/>
    </edge>
    <edge id=":intersection_1_3_18" function="internal">
        <lane id=":intersection_1_3_18_0" index="0" disallow="pedestrian" speed="6.51" length="4.28" shape="-6.08,1193.60 -5.15,1192.05 -4.80,1189.60"/>
    </edge>
    <edge id=":intersection_1_3_19" function="internal">
        <lane id=":intersection_1_3_19_0" index="0" disallow="pedestrian" speed="9.26" length="7.58" shape="-0.32,1203.20 0.85,1205.15 1.60,1210.40"/>
    </edge>
    <edge id=":intersection_1_3_c0" function="crossing" crossingEdges="road_1_3_1 road_1_4_3">
        <lane id=":intersection_1_3_c0_0" index="0" allow="pedestrian" speed="1.00" length="12.80" width="4.00" shape="6.40,1208.40 -6.40,1208.40"/>
    </edge>
    <edge id=":intersection_1_3_c1" function="crossing" crossingEdges="road_1_3_0 road_2_3_2">
        <lane id=":intersection_1_3_c1_0" index="0" allow="pedestrian" speed="1.00" length="12.80" width="4.00" shape="8.40,1193.60 8.40,1206.40"/>
    </edge>
    <edge id=":intersection_1_3_c2" function="crossing" crossingEdges="road_1_3_3 road_1_2_1">
        <lane id=":intersection_1_3_c2_0" index="0" allow="pedestrian" speed="1.00" length="12.80" width="4.00" shape="-6.40,1191.60 6.40,1191.60"/>
    </edge>
    <edge id=":intersection_1_3_c3" function="crossing" crossingEdges="road_1_3_2 road_0_3_0">
        <lane id=":intersection_1_3_c3_0" index="0" allow="pedestrian" speed="1.00" length="12.80" width="4.00" shape="-8.40,1206.40 -8.40,1193.60"/>
    </edge>
    <edge id=":intersection_1_3_w0" function="walkingarea">
        <lane id=":intersection_1_3_w0_0" index="0" allow="pedestrian" speed="1.00" length="3.30" width="4.00" shape="-10.40,1206.40 -10.40,1208.40 -8.40,1210.40 -6.40,1210.40 -6.51,1209.18 -6.84,1208.18 -7.40,1207.40 -8.18,1206.84 -9.18,1206.51"/>
    </edge>
    <edge id=":intersection_1_3_w1" function="walkingarea">
        <lane id=":intersection_1_3_w1_0" index="0" allow="pedestrian" speed="1.00" length="3.30" width="4.00" shape="6.40,1210.40 8.40,1210.40 10.40,1208.40 10.40,1206.40 9.18,1206.51 8.18,1206.84 7.40,1207.40 6.84,1208.18 6.51,1209.18"/>
    </edge>
    <edge id=":intersection_1_3_w2" function="walkingarea">
        <lane id=":intersection_1_3_w2_0" index="0" allow="pedestrian" speed="1.00" length="3.30" width="4.00" shape="10.40,1193.60 10.40,1191.60 8.40,1189.60 6.40,1189.60 6.51,1190.82 6.84,1191.82 7.40,1192.60 8.18,1193.16 9.18,1193.49"/>
    </edge>
    <edge id=":intersection_1_3_w3" function="walkingarea">
        <lane id=":intersection_1_3_w3_0" index="0" allow="pedestrian" speed="1.00" length="3.30" width="4.00" shape="-6.40,1189.60 -8.40,1189.60 -10.40,1191.60 -10.40,1193.60 -9.18,1193.49 -8.18,1193.16 -7.40,1192.60 -6.84,1191.82 -6.51,1190.82"/>
    </edge>
    <edge id=":intersection_1_4_0" function="internal">
        <lane id=":intersection_1_4_0_0" index="0" disallow="pedestrian" speed="6.51" length="4.75" shape="-4.80,1810.40 -5.15,1807.95 -6.20,1806.20 -6.40,1806.08"/>
    </edge>
    <edge id=":intersection_1_4_1" function="internal">
        <lane id=":intersection_1_4_1_0" index="0" disallow="pedestrian" speed="13.89" length="20.80" shape="-4.80,1810.40 -4.80,1789.60"/>
    </edge>
    <edge id=":intersection_1_4_2" function="internal">
        <lane id=":intersection_1_4_2_0" index="0" disallow="pedestrian" speed="9.26" length="11.78" shape="-1.60,1810.40 -0.85,1805.15 1.40,1801.40 3.20,1800.32"/>
    </edge>
    <edge id=":intersection_1_4_12" function="internal">
        <lane id=":intersection_1_4_12_0" index="0" disallow="pedestrian" speed="6.51" length="4.28" shape="-6.40,1806.08 -7.95,1805.15 -10.40,1804.80"/>
    </edge>
    <edge id=":intersection_1_4_13" function="internal">
        <lane id=":intersection_1_4_13_0" index="0" disallow="pedestrian" speed="9.26" length="7.58" shape="3.20,1800.32 5.15,1799.15 10.40,1798.40"/>
    </edge>
    <edge id=":intersection_1_4_3" function="internal">
        <lane id=":intersection_1_4_3_0" index="0" disallow="pedestrian" speed="6.51" length="4.75" shape="10.40,1804.80 7.95,1805.15 6.20,1806.20 6.08,1806.40"/>
    </edge>
    <edge id=":intersection_1_4_4" function="internal">
        <lane id=":intersection_1_4_4_0" index="0" disallow="pedestrian" speed="13.89" length="20.80" shape="10.40,1804.80 -10.40,1804.80"/>
    </edge>
    <edge id=":intersection_1_4_5" function="internal">
        <lane id=":intersection_1_4_5_0" index="0" disallow="pedestrian" speed="9.26" length="11.78" shape="10.40,1801.60 5.15,1800.85 1.40,1798.60 0.32,1796.80"/>
    </edge>
    <edge id=":intersection_1_4_14" function="internal">
        <lane id=":intersection_1_4_14_0" index="0" disallow="pedestrian" speed="6.51" length="4.28" shape="6.08,1806.40 5.15,1807.95 4.80,1810.40"/>
    </edge>
    <edge id=":intersection_1_4_15" function="internal">
        <lane id=":intersection_1_4_15_0" index="0" disallow="pedestrian" speed="9.26" length="7.58" shape="0.32,1796.80 -0.85,1794.85 -1.60,1789.60"/>
    </edge>
    <edge id=":intersection_1_4_6" function="internal">
        <lane id=":intersection_1_4_6_0" index="0" disallow="pedestrian" speed="6.51" length="4.75" shape="4.80,1789.60 5.15,1792.05 6.20,1793.80 6.40,1793.92"/>
    </edge>
    <edge id=":intersection_1_4_7" function="internal">
        <lane id=":intersection_1_4_7_0" index="0" disallow="pedestrian" speed="13.89" length="20.80" shape="4.80,1789.60 4.80,1810.40"/>
    </edge>
    <edge id=":intersection_1_4_8" function="internal">
        <lane id=":intersection_1_4_8_0" index="0" disallow="pedestrian" speed="9.26" length="11.78" shape="1.60,1789.60 0.85,1794.85 -1.40,1798.60 -3.20,1799.68"/>
    </edge>
    <edge id=":intersection_1_4_16" function="internal">
        <lane id=":intersection_1_4_16_0" index="0" disallow="pedestrian" speed="6.51" length="4.28" shape="6.40,1793.92 7.95,1794.85 10.40,1795.20"/>
    </edge>
    <edge id=":intersection_1_4_17" function="internal">
        <lane id=":intersection_1_4_17_0" index="0" disallow="pedestrian" speed="9.26" length="7.58" shape="-3.20,1799.68 -5.15,1800.85 -10.40,1801.60"/>
    </edge>
    <edge id=":intersection_1_4_9" function="internal">
        <lane id=":intersection_1_4_9_0" index="0" disallow="pedestrian" speed="6.51" length="4.75" shape="-10.40,1795.20 -7.95,1794.85 -6.20,1793.80 -6.08,1793.60"/>
    </edge>
    <edge id=":intersection_1_4_10" function="internal">
        <lane id=":intersection_1_4_10_0" index="0" disallow="pedestrian" speed="13.89" length="20.80" shape="-10.40,1795.20 10.40,1795.20"/>
    </edge>
    <edge id=":intersection_1_4_11" function="internal">
        <lane id=":intersection_1_4_11_0" index="0" disallow="pedestrian" speed="9.26" length="11.78" shape="-10.40,1798.40 -5.15,1799.15 -1.40,1801.40 -0.32,1803.20"/>
    </edge>
    <edge id=":intersection_1_4_18" function="internal">
        <lane id=":intersection_1_4_18_0" index="0" disallow="pedestrian" speed="6.51" length="4.28" shape="-6.08,1793.60 -5.15,1792.05 -4.80,1789.60"/>
    </edge>
    <edge id=":intersection_1_4_19" function="internal">
        <lane id=":intersection_1_4_19_0" index="0" disallow="pedestrian" speed="9.26" length="7.58" shape="-0.32,1803.20 0.85,1805.15 1.60,1810.40"/>
    </edge>
    <edge id=":intersection_1_4_c0" function="crossing" crossingEdges="road_1_4_1 road_1_5_3">
        <lane id=":intersection_1_4_c0_0" index="0" allow="pedestrian" speed="1.00" length="12.80" width="4.00" shape="6.40,1808.40 -6.40,1808.40"/>
    </edge>
    <edge id=":intersection_1_4_c1" function="crossing" crossingEdges="road_1_4_0 road_2_4_2">
        <lane id=":intersection_1_4_c1_0" index="0" allow="pedestrian" speed="1.00" length="12.80" width="4.00" shape="8.40,1793.60 8.40,1806.40"/>
    </edge>
    <edge id=":intersection_1_4_c2" function="crossing" crossingEdges="road_1_4_3 road_1_3_1">
        <lane id=":intersection_1_4_c2_0" index="0" allow="pedestrian" speed="1.00" length="12.80" width="4.00" shape="-6.40,1791.60 6.40,1791.60"/>
    </edge>
    <edge id=":intersection_1_4_c3" function="crossing" crossingEdges="road_1_4_2 road_0_4_0">
        <lane id=":intersection_1_4_c3_0" index="0" allow="pedestrian" speed="1.00" length="12.80" width="4.00" shape="-8.40,1806.40 -8.40,1793.60"/>
    </edge>
    <edge id=":intersection_1_4_w0" function="walkingarea">
        <lane id=":intersection_1_4_w0_0" index="0" allow="pedestrian" speed="1.00" length="3.30" width="4.00" shape="-10.40,1806.40 -10.40,1808.40 -8.40,1810.40 -6.40,1810.40 -6.51,1809.18 -6.84,1808.18 -7.40,1807.40 -8.18,1806.84 -9.18,1806.51"/>
    </edge>
    <edge id=":intersection_1_4_w1" function="walkingarea">
        <lane id=":intersection_1_4_w1_0" index="0" allow="pedestrian" speed="1.00" length="3.30" width="4.00" shape="6.40,1810.40 8.40,1810.40 10.40,1808.40 10.40,1806.40 9.18,1806.51 8.18,1806.84 7.40,1807.40 6.84,1808.18 6.51,1809.18"/>
    </edge>
    <edge id=":intersection_1_4_w2" function="walkingarea">
        <lane id=":intersection_1_4_w2_0" index="0" allow="pedestrian" speed="1.00" length="3.30" width="4.00" shape="10.40,1793.60 10.40,1791.60 8.40,1789.60 6.40,1789.60 6.51,1790.82 6.84,1791.82 7.40,1792.60 8.18,1793.16 9.18,1793.49"/>
    </edge>
    <edge id=":intersection_1_4_w3" function="walkingarea">
        <lane id=":intersection_1_4_w3_0" index="0" allow="pedestrian" speed="1.00" length="3.30" width="4.00" shape="-6.40,1789.60 -8.40,1789.60 -10.40,1791.60 -10.40,1793.60 -9.18,1793.49 -8.18,1793.16 -7.40,1792.60 -6.84,1791.82 -6.51,1790.82"/>
    </edge>
    <edge id=":intersection_1_5_w0" function="walkingarea">