<?xml version="1.0" encoding="iso-8859-1"?>
<connections xmlns:xsi="http://www.w3.org/2001/XMLSchema-instance"
             xsi:noNamespaceSchemaLocation="http://sumo.dlr.de/xsd/connections_file.xsd">

    <!--I1/>-->

    <connection from="road_0_1_0" to="road_1_1_3" fromLane="1" toLane="1"/><!--0 右轉- />-->
    <connection from="road_0_1_0" to="road_1_1_0" fromLane="1" toLane="1"/><!--0 直行-車道 />-->
    <connection from="road_0_1_0" to="road_1_1_1" fromLane="2" toLane="2"/><!--0 左轉- />-->

    <connection from="road_1_0_1" to="road_1_1_0" fromLane="1" toLane="1"/>
    <connection from="road_1_0_1" to="road_1_1_1" fromLane="1" toLane="1"/>
    <connection from="road_1_0_1" to="road_1_1_2" fromLane="2" toLane="2"/>

    <connection from="road_2_1_2" to="road_1_1_1" fromLane="1" toLane="1"/>
    <connection from="road_2_1_2" to="road_1_1_2" fromLane="1" toLane="2"/>
    <connection from="road_2_1_2" to="road_1_1_3" fromLane="2" toLane="2"/>

    <connection from="road_1_2_3" to="road_1_1_2" fromLane="1" toLane="1"/><!--0 右轉- />-->
    <connection from="road_1_2_3" to="road_1_1_3" fromLane="1" toLane="1"/><!--0 直行-車道 />-->
    <connection from="road_1_2_3" to="road_1_1_0" fromLane="2" toLane="2"/><!--0 左轉- />-->

    <!--I2/>-->
    <connection from="road_0_2_0" to="road_1_2_3" fromLane="1" toLane="1"/><!--1 右轉- />-->
    <connection from="road_0_2_0" to="road_1_2_0" fromLane="1" toLane="1"/><!--1 直行-車道 />-->
    <connection from="road_0_2_0" to="road_1_2_1" fromLane="2" toLane="2"/><!--0 左轉- />-->

    <connection from="road_1_1_1" to="road_1_2_0" fromLane="1" toLane="1"/><!--2 右轉- />-->
    <connection from="road_1_1_1" to="road_1_2_1" fromLane="1" toLane="1"/><!--2 直行-車道 />-->
    <connection from="road_1_1_1" to="road_1_2_2" fromLane="2" toLane="2"/><!--0 左轉- />-->

    <connection from="road_2_2_2" to="road_1_2_1" fromLane="1" toLane="1"/>
    <connection from="road_2_2_2" to="road_1_2_2" fromLane="1" toLane="1"/>
    <connection from="road_2_2_2" to="road_1_2_3" fromLane="2" toLane="2"/>

    <connection from="road_1_3_3" to="road_1_2_2" fromLane="1" toLane="1"/>
    <connection from="road_1_3_3" to="road_1_2_3" fromLane="1" toLane="1"/>
    <connection from="road_1_3_3" to="road_1_2_0" fromLane="2" toLane="2"/>


    <!--I3/>-->
    <connection from="road_0_3_0" to="road_1_3_3" fromLane="1" toLane="1"/><!--1 右轉- />-->
    <connection from="road_0_3_0" to="road_1_3_0" fromLane="1" toLane="1"/><!--1 直行-車道 />-->
    <connection from="road_0_3_0" to="road_1_3_1" fromLane="2" toLane="2"/><!--0 左轉- />-->

    <connection from="road_1_2_1" to="road_1_3_0" fromLane="1" toLane="1"/><!--2 右轉- />-->
    <connection from="road_1_2_1" to="road_1_3_1" fromLane="1" toLane="1"/><!--2 直行-車道 />-->
    <connection from="road_1_2_1" to="road_1_3_2" fromLane="2" toLane="2"/><!--0 左轉- />-->

    <connection from="road_2_3_2" to="road_1_3_1" fromLane="1" toLane="1"/>
    <connection from="road_2_3_2" to="road_1_3_2" fromLane="1" toLane="1"/>
    <connection from="road_2_3_2" to="road_1_3_3" fromLane="2" toLane="2"/>

    <connection from="road_1_4_3" to="road_1_3_2" fromLane="1" toLane="1"/>
    <connection from="road_1_4_3" to="road_1_3_3" fromLane="1" toLane="1"/>
    <connection from="road_1_4_3" to="road_1_3_0" fromLane="2" toLane="2"/>

    <!--I4/>-->
    <connection from="road_0_4_0" to="road_1_4_3" fromLane="1" toLane="1"/><!--1 右轉- />-->
    <connection from="road_0_4_0" to="road_1_4_0" fromLane="1" toLane="1"/><!--1 直行-車道 />-->
    <connection from="road_0_4_0" to="road_1_4_1" fromLane="2" toLane="2"/><!--0 左轉- />-->

    <connection from="road_1_3_1" to="road_1_4_0" fromLane="1" toLane="1"/><!--2 右轉- />-->
    <connection from="road_1_3_1" to="road_1_4_1" fromLane="1" toLane="1"/><!--2 直行-車道 />-->
    <connection from="road_1_3_1" to="road_1_4_2" fromLane="2" toLane="2"/><!--0 左轉- />-->

    <connection from="road_2_4_2" to="road_1_4_1" fromLane="1" toLane="1"/>
    <connection from="road_2_4_2" to="road_1_4_2" fromLane="1" toLane="1"/>
    <connection from="road_2_4_2" to="road_1_4_3" fromLane="2" toLane="2"/>

    <connection from="road_1_5_3" to="road_1_4_2" fromLane="1" toLane="1"/>
    <connection from="road_1_5_3" to="road_1_4_3" fromLane="1" toLane="1"/>
    <connection from="road_1_5_3" to="road_1_4_0" fromLane="2" toLane="2"/>

    <!--I5/>-->
    <connection from="road_1_1_0" to="road_2_1_3" fromLane="1" toLane="1"/>
    <connection from="road_1_1_0" to="road_2_1_0" fromLane="1" toLane="1"/>
    <connection from="road_1_1_0" to="road_2_1_1" fromLane="2" toLane="2"/>

    <connection from="road_2_0_1" to="road_2_1_0" fromLane="1" toLane="1"/>
    <connection from="road_2_0_1" to="road_2_1_1" fromLane="1" toLane="1"/>
    <connection from="road_2_0_1" to="road_2_1_2" fromLane="2" toLane="2"/>

    <connection from="road_3_1_2" to="road_2_1_1" fromLane="1" toLane="1"/><!--5 右轉- />-->
    <connection from="road_3_1_2" to="road_2_1_2" fromLane="1" toLane="1"/><!--5 直行-車道 />-->
    <connection from="road_3_1_2" to="road_2_1_3" fromLane="2" toLane="2"/><!--0 左轉- />-->

    <connection from="road_2_2_3" to="road_2_1_2" fromLane="1" toLane="1"/><!--6 右轉- />-->
    <connection from="road_2_2_3" to="road_2_1_3" fromLane="1" toLane="1"/><!--6 直行-車道 />-->
    <connection from="road_2_2_3" to="road_2_1_0" fromLane="2" toLane="2"/><!--0 左轉- />-->

    <!--I6/>-->

    <connection from="road_1_2_0" to="road_2_2_3" fromLane="1" toLane="1"/>
    <connection from="road_1_2_0" to="road_2_2_0" fromLane="1" toLane="1"/>
    <connection from="road_1_2_0" to="road_2_2_1" fromLane="2" toLane="2"/>

    <connection from="road_2_1_1" to="road_2_2_0" fromLane="1" toLane="1"/><!--3 右轉- />-->
    <connection from="road_2_1_1" to="road_2_2_1" fromLane="1" toLane="1"/><!--3 直行-車道 />-->
    <connection from="road_2_1_1" to="road_2_2_2" fromLane="2" toLane="2"/><!--0 左轉- />-->

    <connection from="road_3_2_2" to="road_2_2_1" fromLane="1" toLane="1"/><!--4 右轉- />-->
    <connection from="road_3_2_2" to="road_2_2_2" fromLane="1" toLane="1"/><!--4 直行-車道 />-->
    <connection from="road_3_2_2" to="road_2_2_3" fromLane="2" toLane="2"/><!--0 左轉- />-->

    <connection from="road_2_3_3" to="road_2_2_2" fromLane="1" toLane="1"/>
    <connection from="road_2_3_3" to="road_2_2_3" fromLane="1" toLane="1"/>
    <connection from="road_2_3_3" to="road_2_2_0" fromLane="2" toLane="2"/>


    <!--I7/>-->
    <connection from="road_1_3_0" to="road_2_3_3" fromLane="1" toLane="1"/><!--1 右轉- />-->
    <connection from="road_1_3_0" to="road_2_3_0" fromLane="1" toLane="1"/><!--1 直行-車道 />-->
    <connection from="road_1_3_0" to="road_2_3_1" fromLane="2" toLane="2"/><!--0 左轉- />-->

    <connection from="road_2_2_1" to="road_2_3_0" fromLane="1" toLane="1"/><!--2 右轉- />-->
    <connection from="road_2_2_1" to="road_2_3_1" fromLane="1" toLane="1"/><!--2 直行-車道 />-->
    <connection from="road_2_2_1" to="road_2_3_2" fromLane="2" toLane="2"/><!--0 左轉- />-->

    <connection from="road_3_3_2" to="road_2_3_1" fromLane="1" toLane="1"/>
    <connection from="road_3_3_2" to="road_2_3_2" fromLane="1" toLane="1"/>
    <connection from="road_3_3_2" to="road_2_3_3" fromLane="2" toLane="2"/>

    <connection from="road_2_4_3" to="road_2_3_2" fromLane="1" toLane="1"/>
    <connection from="road_2_4_3" to="road_2_3_3" fromLane="1" toLane="1"/>
    <connection from="road_2_4_3" to="road_2_3_0" fromLane="2" toLane="2"/>

    <!--I8/>-->
    <connection from="road_1_4_0" to="road_2_4_3" fromLane="1" toLane="1"/><!--1 右轉- />-->
    <connection from="road_1_4_0" to="road_2_4_0" fromLane="1" toLane="1"/><!--1 直行-車道 />-->
    <connection from="road_1_4_0" to="road_2_4_1" fromLane="2" toLane="2"/><!--0 左轉- />-->

    <connection from="road_2_3_1" to="road_2_4_0" fromLane="1" toLane="1"/><!--2 右轉- />-->
    <connection from="road_2_3_1" to="road_2_4_1" fromLane="1" toLane="1"/><!--2 直行-車道 />-->
    <connection from="road_2_3_1" to="road_2_4_2" fromLane="2" toLane="2"/><!--0 左轉- />-->

    <connection from="road_3_4_2" to="road_2_4_1" fromLane="1" toLane="1"/>
    <connection from="road_3_4_2" to="road_2_4_2" fromLane="1" toLane="1"/>
    <connection from="road_3_4_2" to="road_2_4_3" fromLane="2" toLane="2"/>

    <connection from="road_2_5_3" to="road_2_4_2" fromLane="1" toLane="1"/>
    <connection from="road_2_5_3" to="road_2_4_3" fromLane="1" toLane="1"/>
    <connection from="road_2_5_3" to="road_2_4_0" fromLane="2" toLane="2"/>
    <!--I9/>-->
    <connection from="road_2_1_0" to="road_3_1_3" fromLane="1" toLane="1"/>
    <connection from="road_2_1_0" to="road_3_1_0" fromLane="1" toLane="1"/>
    <connection from="road_2_1_0" to="road_3_1_1" fromLane="2" toLane="2"/>

    <connection from="road_3_0_1" to="road_3_1_0" fromLane="1" toLane="1"/>
    <connection from="road_3_0_1" to="road_3_1_1" fromLane="1" toLane="1"/>
    <connection from="road_3_0_1" to="road_3_1_2" fromLane="2" toLane="2"/>

    <connection from="road_4_1_2" to="road_3_1_1" fromLane="1" toLane="1"/><!--5 右轉- />-->
    <connection from="road_4_1_2" to="road_3_1_2" fromLane="1" toLane="1"/><!--5 直行-車道 />-->
    <connection from="road_4_1_2" to="road_3_1_3" fromLane="2" toLane="2"/><!--0 左轉- />-->

    <connection from="road_3_2_3" to="road_3_1_2" fromLane="1" toLane="1"/><!--6 右轉- />-->
    <connection from="road_3_2_3" to="road_3_1_3" fromLane="1" toLane="1"/><!--6 直行-車道 />-->
    <connection from="road_3_2_3" to="road_3_1_0" fromLane="2" toLane="2"/><!--0 左轉- />-->


    <!--I10/>-->

    <connection from="road_2_2_0" to="road_3_2_3" fromLane="1" toLane="1"/>
    <connection from="road_2_2_0" to="road_3_2_0" fromLane="1" toLane="1"/>
    <connection from="road_2_2_0" to="road_3_2_1" fromLane="2" toLane="2"/>

    <connection from="road_3_1_1" to="road_3_2_0" fromLane="1" toLane="1"/><!--3 右轉- />-->
    <connection from="road_3_1_1" to="road_3_2_1" fromLane="1" toLane="1"/><!--3 直行-車道 />-->
    <connection from="road_3_1_1" to="road_3_2_2" fromLane="2" toLane="2"/><!--0 左轉- />-->

    <connection from="road_4_2_2" to="road_3_2_1" fromLane="1" toLane="1"/><!--4 右轉- />-->
    <connection from="road_4_2_2" to="road_3_2_2" fromLane="1" toLane="1"/><!--4 直行-車道 />-->
    <connection from="road_4_2_2" to="road_3_2_3" fromLane="2" toLane="2"/><!--0 左轉- />-->

    <connection from="road_3_3_3" to="road_3_2_2" fromLane="1" toLane="1"/>
    <connection from="road_3_3_3" to="road_3_2_3" fromLane="1" toLane="1"/>
    <connection from="road_3_3_3" to="road_3_2_0" fromLane="2" toLane="2"/>


    <!--I11/>-->
    <connection from="road_2_3_0" to="road_3_3_3" fromLane="1" toLane="1"/><!--1 右轉- />-->
    <connection from="road_2_3_0" to="road_3_3_0" fromLane="1" toLane="1"/><!--1 直行-車道 />-->
    <connection from="road_2_3_0" to="road_3_3_1" fromLane="2" toLane="2"/><!--0 左轉- />-->

    <connection from="road_3_2_1" to="road_3_3_0" fromLane="1" toLane="1"/><!--2 右轉- />-->
    <connection from="road_3_2_1" to="road_3_3_1" fromLane="1" toLane="1"/><!--2 直行-車道 />-->
    <connection from="road_3_2_1" to="road_3_3_2" fromLane="2" toLane="2"/><!--0 左轉- />-->

    <connection from="road_4_3_2" to="road_3_3_1" fromLane="1" toLane="1"/>
    <connection from="road_4_3_2" to="road_3_3_2" fromLane="1" toLane="1"/>
    <connection from="road_4_3_2" to="road_3_3_3" fromLane="2" toLane="2"/>

    <connection from="road_3_4_3" to="road_3_3_2" fromLane="1" toLane="1"/>
    <connection from="road_3_4_3" to="road_3_3_3" fromLane="1" toLane="1"/>
    <connection from="road_3_4_3" to="road_3_3_0" fromLane="2" toLane="2"/>

    <!--I12/>-->
    <connection from="road_2_4_0" to="road_3_4_3" fromLane="1" toLane="1"/><!--1 右轉- />-->
    <connection from="road_2_4_0" to="road_3_4_0" fromLane="1" toLane="1"/><!--1 直行-車道 />-->
    <connection from="road_2_4_0" to="road_3_4_1" fromLane="2" toLane="2"/><!--0 左轉- />-->

    <connection from="road_3_3_1" to="road_3_4_0" fromLane="1" toLane="1"/><!--2 右轉- />-->
    <connection from="road_3_3_1" to="road_3_4_1" fromLane="1" toLane="1"/><!--2 直行-車道 />-->
    <connection from="road_3_3_1" to="road_3_4_2" fromLane="2" toLane="2"/><!--0 左轉- />-->

    <connection from="road_4_4_2" to="road_3_4_1" fromLane="1" toLane="1"/>
    <connection from="road_4_4_2" to="road_3_4_2" fromLane="1" toLane="1"/>
    <connection from="road_4_4_2" to="road_3_4_3" fromLane="2" toLane="2"/>

    <connection from="road_3_5_3" to="road_3_4_2" fromLane="1" toLane="1"/>
    <connection from="road_3_5_3" to="road_3_4_3" fromLane="1" toLane="1"/>
    <connection from="road_3_5_3" to="road_3_4_0" fromLane="2" toLane="2"/>
    <!--I13/>-->
    <connection from="road_3_1_0" to="road_4_1_3" fromLane="1" toLane="1"/><!--1 右轉- />-->
    <connection from="road_3_1_0" to="road_4_1_0" fromLane="1" toLane="1"/><!--1 直行-車道 />-->
    <connection from="road_3_1_0" to="road_4_1_1" fromLane="2" toLane="2"/><!--0 左轉- />-->

    <connection from="road_4_0_1" to="road_4_1_0" fromLane="1" toLane="1"/><!--2 右轉- />-->
    <connection from="road_4_0_1" to="road_4_1_1" fromLane="1" toLane="1"/><!--2 直行-車道 />-->
    <connection from="road_4_0_1" to="road_4_1_2" fromLane="2" toLane="2"/><!--0 左轉- />-->

    <connection from="road_5_1_2" to="road_4_1_1" fromLane="1" toLane="1"/>
    <connection from="road_5_1_2" to="road_4_1_2" fromLane="1" toLane="1"/>
    <connection from="road_5_1_2" to="road_4_1_3" fromLane="2" toLane="2"/>

    <connection from="road_4_2_3" to="road_4_1_2" fromLane="1" toLane="1"/>
    <connection from="road_4_2_3" to="road_4_1_3" fromLane="1" toLane="1"/>
    <connection from="road_4_2_3" to="road_4_1_0" fromLane="2" toLane="2"/>


    <!--I14/>-->
    <connection from="road_3_2_0" to="road_4_2_3" fromLane="1" toLane="1"/><!--1 右轉- />-->
    <connection from="road_3_2_0" to="road_4_2_0" fromLane="1" toLane="1"/><!--1 直行-車道 />-->
    <connection from="road_3_2_0" to="road_4_2_1" fromLane="2" toLane="2"/><!--0 左轉- />-->


    <connection from="road_4_1_1" to="road_4_2_0" fromLane="1" toLane="1"/><!--2 右轉- />-->
    <connection from="road_4_1_1" to="road_4_2_1" fromLane="1" toLane="1"/><!--2 直行-車道 />-->
    <connection from="road_4_1_1" to="road_4_2_2" fromLane="2" toLane="2"/><!--0 左轉- />-->

    <connection from="road_5_2_2" to="road_4_2_1" fromLane="1" toLane="1"/>
    <connection from="road_5_2_2" to="road_4_2_2" fromLane="1" toLane="1"/>
    <connection from="road_5_2_2" to="road_4_2_3" fromLane="2" toLane="2"/>

    <connection from="road_4_3_3" to="road_4_2_2" fromLane="1" toLane="1"/>
    <connection from="road_4_3_3" to="road_4_2_3" fromLane="1" toLane="1"/>
    <connection from="road_4_3_3" to="road_4_2_0" fromLane="2" toLane="2"/>


    <!--I15/>-->
    <connection from="road_3_3_0" to="road_4_3_3" fromLane="1" toLane="1"/><!--1 右轉- />-->
    <connection from="road_3_3_0" to="road_4_3_0" fromLane="1" toLane="1"/><!--1 直行-車道 />-->
    <connection from="road_3_3_0" to="road_4_3_1" fromLane="2" toLane="2"/><!--0 左轉- />-->


    <connection from="road_4_2_1" to="road_4_3_0" fromLane="1" toLane="1"/><!--2 右轉- />-->
    <connection from="road_4_2_1" to="road_4_3_1" fromLane="1" toLane="1"/><!--2 直行-車道 />-->
    <connection from="road_4_2_1" to="road_4_3_2" fromLane="2" toLane="2"/><!--0 左轉- />-->

    <connection from="road_5_3_2" to="road_4_3_1" fromLane="1" toLane="1"/>
    <connection from="road_5_3_2" to="road_4_3_2" fromLane="1" toLane="1"/>
    <connection from="road_5_3_2" to="road_4_3_3" fromLane="2" toLane="2"/>

    <connection from="road_4_4_3" to="road_4_3_2" fromLane="1" toLane="1"/>
    <connection from="road_4_4_3" to="road_4_3_3" fromLane="1" toLane="1"/>
    <connection from="road_4_4_3" to="road_4_3_0" fromLane="2" toLane="2"/>

    <!--I16/>-->
    <connection from="road_3_4_0" to="road_4_4_3" fromLane="1" toLane="1"/><!--1 右轉- />-->
    <connection from="road_3_4_0" to="road_4_4_0" fromLane="1" toLane="1"/><!--1 直行-車道 />-->
    <connection from="road_3_4_0" to="road_4_4_1" fromLane="2" toLane="2"/><!--0 左轉- />-->


    <connection from="road_4_3_1" to="road_4_4_0" fromLane="1" toLane="1"/><!--2 右轉- />-->
    <connection from="road_4_3_1" to="road_4_4_1" fromLane="1" toLane="1"/><!--2 直行-車道 />-->
    <connection from="road_4_3_1" to="road_4_4_2" fromLane="2" toLane="2"/><!--0 左轉- />-->

    <connection from="road_5_4_2" to="road_4_4_1" fromLane="1" toLane="1"/>
    <connection from="road_5_4_2" to="road_4_4_2" fromLane="1" toLane="1"/>
    <connection from="road_5_4_2" to="road_4_4_3" fromLane="2" toLane="2"/>

    <connection from="road_4_5_3" to="road_4_4_2" fromLane="1" toLane="1"/>
    <connection from="road_4_5_3" to="road_4_4_3" fromLane="1" toLane="1"/>
    <connection from="road_4_5_3" to="road_4_4_0" fromLane="2" toLane="2"/>

    <crossing node="intersection_1_1" edges="road_0_1_0 road_1_1_2"/>
    <crossing node="intersection_1_1" edges="road_1_1_0 road_2_1_2"/>
    <crossing node="intersection_1_1" edges="road_1_0_1 road_1_1_3"/>
    <crossing node="intersection_1_1" edges="road_1_1_1 road_1_2_3"/>


    <crossing node="intersection_1_2" edges="road_0_2_0 road_1_2_2"/>
    <crossing node="intersection_1_2" edges="road_1_2_0 road_2_2_2"/>
    <crossing node="intersection_1_2" edges="road_1_1_1 road_1_2_3"/>
    <crossing node="intersection_1_2" edges="road_1_2_1 road_1_3_3"/>

    <crossing node="intersection_1_3" edges="road_0_3_0 road_1_3_2"/>
    <crossing node="intersection_1_3" edges="road_1_3_0 road_2_3_2"/>
    <crossing node="intersection_1_3" edges="road_1_2_1 road_1_3_3"/>
    <crossing node="intersection_1_3" edges="road_1_3_1 road_1_4_3"/>

    <crossing node="intersection_1_4" edges="road_0_4_0 road_1_4_2"/>
    <crossing node="intersection_1_4" edges="road_1_4_0 road_2_4_2"/>
    <crossing node="intersection_1_4" edges="road_1_3_1 road_1_4_3"/>
    <crossing node="intersection_1_4" edges="road_1_4_1 road_1_5_3"/>

    <crossing node="intersection_2_1" edges="road_1_1_0 road_2_1_2"/>
    <crossing node="intersection_2_1" edges="road_2_1_0 road_3_1_2"/>
    <crossing node="intersection_2_1" edges="road_2_0_1 road_2_1_3"/>
    <crossing node="intersection_2_1" edges="road_2_1_1 road_2_2_3"/>

    <crossing node="intersection_2_2" edges="road_1_2_0 road_2_2_2"/>
    <crossing node="intersection_2_2" edges="road_2_2_0 road_3_2_2"/>
    <crossing node="intersection_2_2" edges="road_2_1_1 road_2_2_3"/>
    <crossing node="intersection_2_2" edges="road_2_2_1 road_2_3_3"/>


    <crossing node="intersection_2_3" edges="road_1_3_0 road_2_3_2"/>
    <crossing node="intersection_2_3" edges="road_2_3_0 road_3_3_2"/>
    <crossing node="intersection_2_3" edges="road_2_2_1 road_2_3_3"/>
    <crossing node="intersection_2_3" edges="road_2_3_1 road_2_4_3"/>

    <crossing node="intersection_2_4" edges="road_1_4_0 road_2_4_2"/>
    <crossing node="intersection_2_4" edges="road_2_4_0 road_3_4_2"/>
    <crossing node="intersection_2_4" edges="road_2_3_1 road_2_4_3"/>
    <crossing node="intersection_2_4" edges="road_2_4_1 road_2_5_3"/>

    <crossing node="intersection_3_1" edges="road_2_1_0 road_3_1_2"/>
    <crossing node="intersection_3_1" edges="road_3_1_0 road_4_1_2"/>
    <crossing node="intersection_3_1" edges="road_3_0_1 road_3_1_3"/>
    <crossing node="intersection_3_1" edges="road_3_1_1 road_3_2_3"/>


    <crossing node="intersection_3_2" edges="road_2_2_0 road_3_2_2"/>
    <crossing node="intersection_3_2" edges="road_3_2_0 road_4_2_2"/>
    <crossing node="intersection_3_2" edges="road_3_1_1 road_3_2_3"/>
    <crossing node="intersection_3_2" edges="road_3_2_1 road_3_3_3"/>


    <crossing node="intersection_3_3" edges="road_2_3_0 road_3_3_2"/>
    <crossing node="intersection_3_3" edges="road_3_3_0 road_4_3_2"/>
    <crossing node="intersection_3_3" edges="road_3_2_1 road_3_3_3"/>
    <crossing node="intersection_3_3" edges="road_3_3_1 road_3_4_3"/>

    <crossing node="intersection_3_4" edges="road_2_4_0 road_3_4_2"/>
    <crossing node="intersection_3_4" edges="road_3_4_0 road_4_4_2"/>
    <crossing node="intersection_3_4" edges="road_3_3_1 road_3_4_3"/>
    <crossing node="intersection_3_4" edges="road_3_4_1 road_3_5_3"/>


    <crossing node="intersection_4_1" edges="road_3_1_0 road_4_1_2"/>
    <crossing node="intersection_4_1" edges="road_4_1_0 road_5_1_2"/>
    <crossing node="intersection_4_1" edges="road_4_0_1 road_4_1_3"/>
    <crossing node="intersection_4_1" edges="road_4_1_1 road_4_2_3"/>


    <crossing node="intersection_4_2" edges="road_3_2_0 road_4_2_2"/>
    <crossing node="intersection_4_2" edges="road_4_2_0 road_5_2_2"/>
    <crossing node="intersection_4_2" edges="road_4_1_1 road_4_2_3"/>
    <crossing node="intersection_4_2" edges="road_4_2_1 road_4_3_3"/>


    <crossing node="intersection_4_3" edges="road_3_3_0 road_4_3_2"/>
    <crossing node="intersection_4_3" edges="road_4_3_0 road_5_3_2"/>
    <crossing node="intersection_4_3" edges="road_4_2_1 road_4_3_3"/>
    <crossing node="intersection_4_3" edges="road_4_3_1 road_4_4_3"/>

    <crossing node="intersection_4_4" edges="road_3_4_0 road_4_4_2"/>
    <crossing node="intersection_4_4" edges="road_4_4_0 road_5_4_2"/>
    <crossing node="intersection_4_4" edges="road_4_3_1 road_4_4_3"/>
    <crossing node="intersection_4_4" edges="road_4_4_1 road_4_5_3"/>
</connections>
